
This file was generated by AeroDyn (v13.00.02a-bjj, 20-Feb-2013) on 18-Aug-2018 at 21:19:21.

Inputs read in from the AeroDyn input file:
Aerodyn input file for FAST

SI	Units for input and output         
BEDDOES	Dynamic stall model                 [Beddoes]
NO_CM	Aerodynamic pitching moment model   [NO Pitching Moments calculated]
DYNIN	Inflow model                        [Dynamic Inflow]
SWIRL	Induction factor model              [Normal and Radial flow induction factors calculated]
5.00000E-03	Convergence tolerance for induction factor
[Not Used]	Tip-loss model                     
[Not Used]	Hub-loss model                     
"/Users/bingersoll/Dropbox/GradPrograms/blade_damage/src/blade_damage/WND_Files/nonturb_wnd_dir/nom.wnd"	  Wind file name
90	Wind reference (hub) height, m
0	Tower shadow centerline velocity deficit
9999.9	Tower shadow half width, m
9999.9	Tower shadow reference point, m
1.225	Air density, kg/m^3
1.46400E-05	Kinematic air viscosity, m^2/sec
2.47900E-02	Time interval for aerodynamic calculations, sec
8	Number of airfoil files used. Files listed below:
"/Users/bingersoll/Dropbox/GradPrograms/blade_damage/src/blade_damage/FAST_Files/Opt_Files/test_new/sgp3/WNDfile1_sgp3/AeroData/Airfoil0.dat"
"/Users/bingersoll/Dropbox/GradPrograms/blade_damage/src/blade_damage/FAST_Files/Opt_Files/test_new/sgp3/WNDfile1_sgp3/AeroData/Airfoil1.dat"
"/Users/bingersoll/Dropbox/GradPrograms/blade_damage/src/blade_damage/FAST_Files/Opt_Files/test_new/sgp3/WNDfile1_sgp3/AeroData/Airfoil2.dat"
"/Users/bingersoll/Dropbox/GradPrograms/blade_damage/src/blade_damage/FAST_Files/Opt_Files/test_new/sgp3/WNDfile1_sgp3/AeroData/Airfoil3.dat"
"/Users/bingersoll/Dropbox/GradPrograms/blade_damage/src/blade_damage/FAST_Files/Opt_Files/test_new/sgp3/WNDfile1_sgp3/AeroData/Airfoil4.dat"
"/Users/bingersoll/Dropbox/GradPrograms/blade_damage/src/blade_damage/FAST_Files/Opt_Files/test_new/sgp3/WNDfile1_sgp3/AeroData/Airfoil5.dat"
"/Users/bingersoll/Dropbox/GradPrograms/blade_damage/src/blade_damage/FAST_Files/Opt_Files/test_new/sgp3/WNDfile1_sgp3/AeroData/Airfoil6.dat"
"/Users/bingersoll/Dropbox/GradPrograms/blade_damage/src/blade_damage/FAST_Files/Opt_Files/test_new/sgp3/WNDfile1_sgp3/AeroData/Airfoil7.dat"
17	Number of blade elements per blade

     Element     RELM       Twist       DR        Chord      NFoil     Print?    Tip-loss   Hub-loss 
       (-)        (m)       (deg)       (m)        (m)        (-)     (Yes/No)   constant   constant 
   ---------- ---------- ---------- ---------- ---------- ---------- ---------- ---------- ----------
            1    2.86670   12.39100    2.73330    3.61200          1         No   31.46473    1.36670
            2    5.60000   11.56900    2.73330    3.91600          1         No   15.37500    4.10000
            3    8.33330   10.77000    2.73330    4.18100          2         No    9.84005    6.83330
            4   11.75000    9.80100    4.10000    4.43700          3         No    6.54255   10.25000
            5   15.85000    8.68000    4.10000    4.60600          4         No    4.46215   14.35000
            6   19.95000    7.60200    4.10000    4.58900          4         No    3.23684   18.45000
            7   24.05000    6.56900    4.10000    4.42400          5         No    2.42931   22.55000
            8   28.15000    5.59200    4.10000    4.21700          6         No    1.85702   26.65000
            9   32.25000    4.67100    4.10000    3.97200          6         No    1.43023   30.75000
           10   36.35000    3.80600    4.10000    3.68800          7         No    1.09972   34.85000
           11   40.45000    2.99700    4.10000    3.36400          7         No    0.83622   38.95000
           12   44.55000    2.25200    4.10000    3.01700          8         No    0.62121   43.05000
           13   48.65000    1.58100    4.10000    2.66800          8         No    0.44245   47.15000
           14   52.75000    0.98100    4.10000    2.30800          8         No    0.29147   51.25000
           15   56.16670    0.53000    2.73330    1.99400          8         No    0.18249   54.66670
           16   58.90000    0.20100    2.73330    1.72800          8         No    0.10441   57.40000
           17   61.63330   -0.10200    2.73330    1.44800          8         No    0.03326   60.13330


 Rotor radius     =  62.940 m
 Hub radius       =   1.499 m
 Number of blades =   3

  BEDDOES DYNAMIC STALL PARAMETERS:

   CN SLOPE           0.0000     0.0000     7.4888     7.1838     7.3326     6.4462     6.2047     6.0031
   STALL CN (UPPER)   0.0000     0.0000     1.3519     1.6717     1.4490     1.4336     1.4144     1.4073
   STALL CN (LOWER)   0.0000     0.0000    -0.3226    -0.3075    -0.6138    -0.6873    -0.5324    -0.7945
   ZERO LIFT AOA      0.0000     0.0000    -1.3430    -1.8330    -2.3220    -4.2422    -5.0609    -4.4320
   MIN DRAG AOA       0.0000     0.0000     0.0000     0.0000     0.0000     0.0000    -1.5000    -1.0000
   MIN DRAG COEFF     0.5000     0.3500     0.0113     0.0094     0.0087     0.0065     0.0057     0.0052


     VORTEX TRANSIT TIME FROM LE TO TE    11.000000000000000     
     PRESSURE TIME CONSTANT               1.7000000000000000     
     VORTEX TIME CONSTANT                 6.0000000000000000     
     F-PARAMETER TIME CONSTANT            3.0000000000000000     
