! This hub-height wind-speed file was generated by TurbSim (v1.06.00, 21-Sep-2012) on 16-Jun-2018 at 18:39:01.
!
! The requested statistics for this data were:
!    Mean Total Wind Speed =   15.000 m/s
!    Turbulence Intensity  =   22.430%
!
!   Time  HorSpd  WndDir  VerSpd  HorShr  VerShr  LnVShr  GstSpd
!  (sec)   (m/s)   (deg)   (m/s)     (-)     (-)     (-)   (m/s)
   0.000   18.98   -4.23    1.29   0.000   0.200   0.000    0.00
   0.050   19.54   -2.22    1.65   0.000   0.200   0.000    0.00
   0.100   18.83   -0.65    1.46   0.000   0.200   0.000    0.00
   0.150   19.53   -1.58    1.73   0.000   0.200   0.000    0.00
   0.200   19.88   -2.81    1.11   0.000   0.200   0.000    0.00
   0.250   20.42   -0.49    1.76   0.000   0.200   0.000    0.00
   0.300   21.26    1.96    1.70   0.000   0.200   0.000    0.00
   0.350   21.28   -0.86    2.35   0.000   0.200   0.000    0.00
   0.400   22.44   -1.51    2.87   0.000   0.200   0.000    0.00
   0.450   22.00   -0.97    2.90   0.000   0.200   0.000    0.00
   0.500   21.21    1.11    2.97   0.000   0.200   0.000    0.00
   0.550   21.11   -1.13    3.62   0.000   0.200   0.000    0.00
   0.600   20.70   -0.29    4.05   0.000   0.200   0.000    0.00
   0.650   20.43    2.30    3.60   0.000   0.200   0.000    0.00
   0.700   20.45   -1.31    2.93   0.000   0.200   0.000    0.00
   0.750   20.33   -1.80    3.07   0.000   0.200   0.000    0.00
   0.800   19.74   -0.71    2.17   0.000   0.200   0.000    0.00
   0.850   20.33    1.19    2.36   0.000   0.200   0.000    0.00
   0.900   20.52    3.74    1.89   0.000   0.200   0.000    0.00
   0.950   20.84    3.15    2.34   0.000   0.200   0.000    0.00
   1.000   19.38    2.89    0.60   0.000   0.200   0.000    0.00
   1.050   18.40   -2.67    0.54   0.000   0.200   0.000    0.00
   1.100   19.35   -4.06    0.33   0.000   0.200   0.000    0.00
   1.150   19.24   -2.72    0.35   0.000   0.200   0.000    0.00
   1.200   18.54   -4.00   -0.25   0.000   0.200   0.000    0.00
   1.250   18.02   -7.20   -0.14   0.000   0.200   0.000    0.00
   1.300   18.37   -7.11    0.51   0.000   0.200   0.000    0.00
   1.350   17.45   -7.94   -0.95   0.000   0.200   0.000    0.00
   1.400   16.80   -7.85   -1.00   0.000   0.200   0.000    0.00
   1.450   16.89   -8.09   -1.06   0.000   0.200   0.000    0.00
   1.500   17.99   -9.10   -1.07   0.000   0.200   0.000    0.00
   1.550   17.66   -7.47   -1.05   0.000   0.200   0.000    0.00
   1.600   17.96   -9.62   -0.80   0.000   0.200   0.000    0.00
   1.650   17.66   -7.10   -0.06   0.000   0.200   0.000    0.00
   1.700   17.77   -8.08   -0.19   0.000   0.200   0.000    0.00
   1.750   17.41   -7.24    0.60   0.000   0.200   0.000    0.00
   1.800   17.72   -6.49   -0.77   0.000   0.200   0.000    0.00
   1.850   18.16  -10.03   -0.07   0.000   0.200   0.000    0.00
   1.900   18.55   -8.27   -0.10   0.000   0.200   0.000    0.00
   1.950   18.53   -8.84   -1.60   0.000   0.200   0.000    0.00
   2.000   18.37   -8.49   -2.25   0.000   0.200   0.000    0.00
   2.050   18.21   -6.36   -1.99   0.000   0.200   0.000    0.00
   2.100   19.78   -6.57   -1.79   0.000   0.200   0.000    0.00
   2.150   19.31   -6.11   -1.56   0.000   0.200   0.000    0.00
   2.200   18.96   -5.59   -0.98   0.000   0.200   0.000    0.00
   2.250   19.36   -7.26   -0.94   0.000   0.200   0.000    0.00
   2.300   18.62   -8.55   -0.30   0.000   0.200   0.000    0.00
   2.350   17.94   -9.00   -0.10   0.000   0.200   0.000    0.00
   2.400   17.73   -7.60    0.57   0.000   0.200   0.000    0.00
   2.450   17.81   -8.61    0.37   0.000   0.200   0.000    0.00
   2.500   17.62   -4.83    0.03   0.000   0.200   0.000    0.00
   2.550   18.06   -2.61   -0.01   0.000   0.200   0.000    0.00
   2.600   18.77   -3.16    0.02   0.000   0.200   0.000    0.00
   2.650   19.19   -2.07    0.28   0.000   0.200   0.000    0.00
   2.700   19.85   -2.50   -0.27   0.000   0.200   0.000    0.00
   2.750   19.25   -2.52   -0.01   0.000   0.200   0.000    0.00
   2.800   20.24   -2.24    1.41   0.000   0.200   0.000    0.00
   2.850   19.28   -0.32    2.35   0.000   0.200   0.000    0.00
   2.900   19.61    1.20    2.11   0.000   0.200   0.000    0.00
   2.950   18.95    0.16    3.12   0.000   0.200   0.000    0.00
   3.000   18.58    2.56    1.83   0.000   0.200   0.000    0.00
   3.050   17.94    5.53    1.36   0.000   0.200   0.000    0.00
   3.100   17.48    7.52    1.85   0.000   0.200   0.000    0.00
   3.150   18.26    8.65    1.53   0.000   0.200   0.000    0.00
   3.200   18.80    4.88    0.82   0.000   0.200   0.000    0.00
   3.250   18.46    2.77    1.31   0.000   0.200   0.000    0.00
   3.300   18.72    2.19    2.41   0.000   0.200   0.000    0.00
   3.350   19.12    3.94    2.51   0.000   0.200   0.000    0.00
   3.400   19.20    3.93    1.97   0.000   0.200   0.000    0.00
   3.450   18.54    3.20    2.01   0.000   0.200   0.000    0.00
   3.500   17.57    1.69    2.68   0.000   0.200   0.000    0.00
   3.550   17.77    0.27    2.05   0.000   0.200   0.000    0.00
   3.600   17.45   -1.00    1.45   0.000   0.200   0.000    0.00
   3.650   18.07   -1.72    1.19   0.000   0.200   0.000    0.00
   3.700   18.74   -2.37    1.05   0.000   0.200   0.000    0.00
   3.750   17.90   -1.07    0.42   0.000   0.200   0.000    0.00
   3.800   18.55   -1.85    0.37   0.000   0.200   0.000    0.00
   3.850   18.88   -1.23    0.53   0.000   0.200   0.000    0.00
   3.900   18.57    0.60    0.49   0.000   0.200   0.000    0.00
   3.950   18.97    0.06    0.98   0.000   0.200   0.000    0.00
   4.000   19.54    0.59    1.69   0.000   0.200   0.000    0.00
   4.050   19.29   -1.26    0.22   0.000   0.200   0.000    0.00
   4.100   18.10   -1.76    0.24   0.000   0.200   0.000    0.00
   4.150   17.82   -0.27    0.19   0.000   0.200   0.000    0.00
   4.200   18.55    2.88    0.40   0.000   0.200   0.000    0.00
   4.250   18.91    0.59    0.25   0.000   0.200   0.000    0.00
   4.300   18.27   -1.05   -0.11   0.000   0.200   0.000    0.00
   4.350   18.71   -2.41   -0.53   0.000   0.200   0.000    0.00
   4.400   18.17   -0.88   -0.56   0.000   0.200   0.000    0.00
   4.450   17.90   -0.83    0.05   0.000   0.200   0.000    0.00
   4.500   18.24    0.62    0.66   0.000   0.200   0.000    0.00
   4.550   17.43   -0.10    0.33   0.000   0.200   0.000    0.00
   4.600   18.07   -0.36    0.34   0.000   0.200   0.000    0.00
   4.650   18.59   -1.82   -0.20   0.000   0.200   0.000    0.00
   4.700   18.54   -1.41    0.10   0.000   0.200   0.000    0.00
   4.750   19.87   -2.45    1.42   0.000   0.200   0.000    0.00
   4.800   20.20   -0.62    0.44   0.000   0.200   0.000    0.00
   4.850   21.04   -2.01   -0.27   0.000   0.200   0.000    0.00
   4.900   20.40   -1.69    0.68   0.000   0.200   0.000    0.00
   4.950   20.34   -4.67    0.68   0.000   0.200   0.000    0.00
   5.000   20.82   -6.03    2.23   0.000   0.200   0.000    0.00
   5.050   20.97   -5.14    2.65   0.000   0.200   0.000    0.00
   5.100   21.48   -5.18    3.42   0.000   0.200   0.000    0.00
   5.150   21.75   -2.28    2.38   0.000   0.200   0.000    0.00
   5.200   21.45   -6.73    3.01   0.000   0.200   0.000    0.00
   5.250   21.29   -5.86    1.92   0.000   0.200   0.000    0.00
   5.300   20.93   -5.37    1.50   0.000   0.200   0.000    0.00
   5.350   21.25   -5.26    1.69   0.000   0.200   0.000    0.00
   5.400   20.80   -5.46    1.98   0.000   0.200   0.000    0.00
   5.450   21.31   -6.53    1.32   0.000   0.200   0.000    0.00
   5.500   21.12   -6.34    0.77   0.000   0.200   0.000    0.00
   5.550   20.00   -6.97    0.11   0.000   0.200   0.000    0.00
   5.600   19.53   -6.19    1.20   0.000   0.200   0.000    0.00
   5.650   19.36   -7.29    1.13   0.000   0.200   0.000    0.00
   5.700   19.25   -5.68    0.38   0.000   0.200   0.000    0.00
   5.750   20.26   -4.41   -0.09   0.000   0.200   0.000    0.00
   5.800   18.99   -7.57    0.17   0.000   0.200   0.000    0.00
   5.850   19.81   -7.52    0.41   0.000   0.200   0.000    0.00
   5.900   20.24   -7.21    1.38   0.000   0.200   0.000    0.00
   5.950   19.98   -6.63    1.67   0.000   0.200   0.000    0.00
   6.000   19.72   -4.13    1.74   0.000   0.200   0.000    0.00
   6.050   19.02   -1.21    1.66   0.000   0.200   0.000    0.00
   6.100   19.31   -2.64    1.54   0.000   0.200   0.000    0.00
   6.150   19.71   -3.45    1.24   0.000   0.200   0.000    0.00
   6.200   19.19   -4.18    1.07   0.000   0.200   0.000    0.00
   6.250   19.85   -7.18    0.89   0.000   0.200   0.000    0.00
   6.300   18.68   -5.29    1.02   0.000   0.200   0.000    0.00
   6.350   18.24   -5.14    1.78   0.000   0.200   0.000    0.00
   6.400   18.02   -8.85    2.43   0.000   0.200   0.000    0.00
   6.450   18.50   -8.55    1.98   0.000   0.200   0.000    0.00
   6.500   19.77   -9.84    1.32   0.000   0.200   0.000    0.00
   6.550   19.19  -10.08    0.80   0.000   0.200   0.000    0.00
   6.600   19.01   -8.19    0.00   0.000   0.200   0.000    0.00
   6.650   18.21  -11.13   -0.87   0.000   0.200   0.000    0.00
   6.700   17.89  -10.35   -0.69   0.000   0.200   0.000    0.00
   6.750   18.29   -5.83    0.19   0.000   0.200   0.000    0.00
   6.800   19.49   -8.81    0.79   0.000   0.200   0.000    0.00
   6.850   18.77  -10.02    1.55   0.000   0.200   0.000    0.00
   6.900   18.55  -10.80    0.41   0.000   0.200   0.000    0.00
   6.950   18.25   -9.26   -0.34   0.000   0.200   0.000    0.00
   7.000   19.33   -7.44   -0.06   0.000   0.200   0.000    0.00
   7.050   19.09   -6.08    1.10   0.000   0.200   0.000    0.00
   7.100   19.00   -5.76    0.62   0.000   0.200   0.000    0.00
   7.150   18.49   -7.26    0.07   0.000   0.200   0.000    0.00
   7.200   17.90   -7.04    0.20   0.000   0.200   0.000    0.00
   7.250   16.91   -7.41   -0.81   0.000   0.200   0.000    0.00
   7.300   15.68   -7.85    0.39   0.000   0.200   0.000    0.00
   7.350   15.32  -10.27   -0.09   0.000   0.200   0.000    0.00
   7.400   15.30   -8.36    0.03   0.000   0.200   0.000    0.00
   7.450   14.88   -4.27   -0.35   0.000   0.200   0.000    0.00
   7.500   15.14   -3.15    0.42   0.000   0.200   0.000    0.00
   7.550   15.34   -6.75    0.65   0.000   0.200   0.000    0.00
   7.600   15.71   -3.24    0.38   0.000   0.200   0.000    0.00
   7.650   16.41   -4.28   -0.54   0.000   0.200   0.000    0.00
   7.700   17.17   -4.86   -1.05   0.000   0.200   0.000    0.00
   7.750   17.59   -4.39   -1.13   0.000   0.200   0.000    0.00
   7.800   17.21   -4.64   -1.20   0.000   0.200   0.000    0.00
   7.850   16.41   -5.83   -1.80   0.000   0.200   0.000    0.00
   7.900   15.81   -6.22   -2.36   0.000   0.200   0.000    0.00
   7.950   16.50   -7.76   -1.82   0.000   0.200   0.000    0.00
   8.000   17.77   -8.70   -1.23   0.000   0.200   0.000    0.00
   8.050   18.55  -11.26   -1.51   0.000   0.200   0.000    0.00
   8.100   18.32  -12.68   -1.57   0.000   0.200   0.000    0.00
   8.150   18.69  -15.42   -2.61   0.000   0.200   0.000    0.00
   8.200   19.54  -16.20   -2.49   0.000   0.200   0.000    0.00
   8.250   18.79  -14.08   -4.14   0.000   0.200   0.000    0.00
   8.300   18.92  -13.13   -4.53   0.000   0.200   0.000    0.00
   8.350   19.34  -14.15   -4.07   0.000   0.200   0.000    0.00
   8.400   19.97  -13.75   -3.25   0.000   0.200   0.000    0.00
   8.450   20.00  -13.47   -3.33   0.000   0.200   0.000    0.00
   8.500   19.88  -14.70   -3.04   0.000   0.200   0.000    0.00
   8.550   20.29  -17.00   -2.59   0.000   0.200   0.000    0.00
   8.600   19.78  -18.62   -2.61   0.000   0.200   0.000    0.00
   8.650   20.55  -16.28   -1.82   0.000   0.200   0.000    0.00
   8.700   20.39  -11.96   -2.67   0.000   0.200   0.000    0.00
   8.750   19.79  -10.77   -2.53   0.000   0.200   0.000    0.00
   8.800   19.70  -12.01   -2.70   0.000   0.200   0.000    0.00
   8.850   20.48  -12.44   -0.92   0.000   0.200   0.000    0.00
   8.900   20.32  -13.66   -1.06   0.000   0.200   0.000    0.00
   8.950   20.20  -14.35   -0.98   0.000   0.200   0.000    0.00
   9.000   19.53  -15.47   -1.38   0.000   0.200   0.000    0.00
   9.050   18.99  -14.28   -0.30   0.000   0.200   0.000    0.00
   9.100   19.16  -10.25    0.22   0.000   0.200   0.000    0.00
   9.150   19.56   -8.41   -0.17   0.000   0.200   0.000    0.00
   9.200   19.86   -9.59   -0.25   0.000   0.200   0.000    0.00
   9.250   20.45  -10.79   -0.53   0.000   0.200   0.000    0.00
   9.300   20.84  -14.15    0.37   0.000   0.200   0.000    0.00
   9.350   19.85  -14.21    0.06   0.000   0.200   0.000    0.00
   9.400   20.03  -14.60   -0.27   0.000   0.200   0.000    0.00
   9.450   19.42  -17.43    0.34   0.000   0.200   0.000    0.00
   9.500   19.31  -18.92   -0.20   0.000   0.200   0.000    0.00
   9.550   19.74  -19.01   -0.79   0.000   0.200   0.000    0.00
   9.600   18.50  -19.90   -1.27   0.000   0.200   0.000    0.00
   9.650   18.40  -19.82   -0.58   0.000   0.200   0.000    0.00
   9.700   18.79  -19.11    1.09   0.000   0.200   0.000    0.00
   9.750   18.83  -19.65    1.07   0.000   0.200   0.000    0.00
   9.800   18.93  -19.17    1.15   0.000   0.200   0.000    0.00
   9.850   19.20  -17.76    0.09   0.000   0.200   0.000    0.00
   9.900   19.07  -15.28    0.07   0.000   0.200   0.000    0.00
   9.950   19.00  -12.27    0.68   0.000   0.200   0.000    0.00
  10.000   19.22  -10.24    1.15   0.000   0.200   0.000    0.00
  10.050   19.79   -9.39    1.47   0.000   0.200   0.000    0.00
  10.100   20.01  -10.26    1.58   0.000   0.200   0.000    0.00
  10.150   19.55   -9.88    1.39   0.000   0.200   0.000    0.00
  10.200   20.12  -13.07    1.20   0.000   0.200   0.000    0.00
  10.250   19.62  -10.81    0.68   0.000   0.200   0.000    0.00
  10.300   20.00   -9.63    1.26   0.000   0.200   0.000    0.00
  10.350   19.92  -12.19    0.20   0.000   0.200   0.000    0.00
  10.400   20.68  -13.99    0.47   0.000   0.200   0.000    0.00
  10.450   21.14  -14.74    0.00   0.000   0.200   0.000    0.00
  10.500   20.42  -15.81   -0.98   0.000   0.200   0.000    0.00
  10.550   20.27  -15.52   -0.53   0.000   0.200   0.000    0.00
  10.600   19.52  -14.10   -0.81   0.000   0.200   0.000    0.00
  10.650   19.76  -15.50   -1.55   0.000   0.200   0.000    0.00
  10.700   19.24  -14.36   -0.89   0.000   0.200   0.000    0.00
  10.750   19.25  -13.84   -0.98   0.000   0.200   0.000    0.00
  10.800   19.37  -14.33   -0.48   0.000   0.200   0.000    0.00
  10.850   19.02  -14.29   -0.88   0.000   0.200   0.000    0.00
  10.900   20.73  -16.11   -0.60   0.000   0.200   0.000    0.00
  10.950   20.66  -15.88    0.39   0.000   0.200   0.000    0.00
  11.000   21.44  -15.41   -0.20   0.000   0.200   0.000    0.00
  11.050   21.93  -17.16    0.19   0.000   0.200   0.000    0.00
  11.100   21.34  -15.14    0.22   0.000   0.200   0.000    0.00
  11.150   20.18  -14.79   -0.27   0.000   0.200   0.000    0.00
  11.200   20.23   -9.25    0.51   0.000   0.200   0.000    0.00
  11.250   20.00   -8.99    1.83   0.000   0.200   0.000    0.00
  11.300   21.06  -10.47    1.68   0.000   0.200   0.000    0.00
  11.350   20.96   -9.44    0.77   0.000   0.200   0.000    0.00
  11.400   20.51  -10.39    0.47   0.000   0.200   0.000    0.00
  11.450   20.87   -7.24    0.47   0.000   0.200   0.000    0.00
  11.500   20.79   -5.14    1.37   0.000   0.200   0.000    0.00
  11.550   20.36   -5.26    2.05   0.000   0.200   0.000    0.00
  11.600   19.76   -8.08    2.48   0.000   0.200   0.000    0.00
  11.650   19.84   -6.83    1.99   0.000   0.200   0.000    0.00
  11.700   19.83   -9.50    1.58   0.000   0.200   0.000    0.00
  11.750   20.20  -11.74    0.80   0.000   0.200   0.000    0.00
  11.800   19.81  -11.42    1.67   0.000   0.200   0.000    0.00
  11.850   19.69  -10.62    1.28   0.000   0.200   0.000    0.00
  11.900   20.23  -13.53    0.86   0.000   0.200   0.000    0.00
  11.950   20.09  -14.89   -0.20   0.000   0.200   0.000    0.00
  12.000   20.09  -16.17    0.04   0.000   0.200   0.000    0.00
  12.050   19.76  -18.05    0.71   0.000   0.200   0.000    0.00
  12.100   20.48  -19.12    0.08   0.000   0.200   0.000    0.00
  12.150   19.36  -17.35   -1.42   0.000   0.200   0.000    0.00
  12.200   19.11  -16.07    0.21   0.000   0.200   0.000    0.00
  12.250   19.05  -17.53    0.99   0.000   0.200   0.000    0.00
  12.300   19.80  -15.40    0.23   0.000   0.200   0.000    0.00
  12.350   20.54  -15.98    0.92   0.000   0.200   0.000    0.00
  12.400   20.33  -17.74    0.85   0.000   0.200   0.000    0.00
  12.450   19.07  -16.45    0.86   0.000   0.200   0.000    0.00
  12.500   19.56  -11.71    1.44   0.000   0.200   0.000    0.00
  12.550   20.15  -11.50    1.56   0.000   0.200   0.000    0.00
  12.600   18.83   -9.73    1.60   0.000   0.200   0.000    0.00
  12.650   18.28  -11.62    1.87   0.000   0.200   0.000    0.00
  12.700   18.20  -10.28    1.94   0.000   0.200   0.000    0.00
  12.750   17.86  -10.41    1.42   0.000   0.200   0.000    0.00
  12.800   18.46   -8.13    1.54   0.000   0.200   0.000    0.00
  12.850   18.89   -7.97    1.92   0.000   0.200   0.000    0.00
  12.900   19.30   -9.26    0.74   0.000   0.200   0.000    0.00
  12.950   19.38   -9.94   -0.32   0.000   0.200   0.000    0.00
  13.000   20.15   -7.40   -0.18   0.000   0.200   0.000    0.00
  13.050   20.49   -7.56    1.07   0.000   0.200   0.000    0.00
  13.100   20.06   -7.01    1.84   0.000   0.200   0.000    0.00
  13.150   20.22   -5.80    2.50   0.000   0.200   0.000    0.00
  13.200   20.98   -7.72    2.40   0.000   0.200   0.000    0.00
  13.250   20.21   -9.81    2.93   0.000   0.200   0.000    0.00
  13.300   20.29  -10.26    3.13   0.000   0.200   0.000    0.00
  13.350   20.15   -8.88    3.65   0.000   0.200   0.000    0.00
  13.400   20.99  -11.61    2.70   0.000   0.200   0.000    0.00
  13.450   21.28  -15.39    2.82   0.000   0.200   0.000    0.00
  13.500   20.94  -12.86    2.09   0.000   0.200   0.000    0.00
  13.550   21.27  -13.54    1.59   0.000   0.200   0.000    0.00
  13.600   20.62  -11.67    0.96   0.000   0.200   0.000    0.00
  13.650   20.76  -12.38    0.56   0.000   0.200   0.000    0.00
  13.700   20.72  -14.43    1.29   0.000   0.200   0.000    0.00
  13.750   19.79  -16.14    1.81   0.000   0.200   0.000    0.00
  13.800   19.82  -16.83    1.21   0.000   0.200   0.000    0.00
  13.850   19.67  -18.20    0.71   0.000   0.200   0.000    0.00
  13.900   20.32  -20.49   -0.35   0.000   0.200   0.000    0.00
  13.950   21.06  -18.09   -0.72   0.000   0.200   0.000    0.00
  14.000   21.60  -18.11   -0.51   0.000   0.200   0.000    0.00
  14.050   21.51  -16.64    0.06   0.000   0.200   0.000    0.00
  14.100   22.11  -18.36   -1.06   0.000   0.200   0.000    0.00
  14.150   22.43  -17.20   -0.40   0.000   0.200   0.000    0.00
  14.200   21.76  -17.41   -0.79   0.000   0.200   0.000    0.00
  14.250   21.03  -21.18   -0.90   0.000   0.200   0.000    0.00
  14.300   21.19  -18.66   -2.01   0.000   0.200   0.000    0.00
  14.350   21.49  -16.26   -1.69   0.000   0.200   0.000    0.00
  14.400   21.07  -15.53   -1.13   0.000   0.200   0.000    0.00
  14.450   21.12  -12.17   -2.24   0.000   0.200   0.000    0.00
  14.500   21.52  -13.37   -1.89   0.000   0.200   0.000    0.00
  14.550   21.62  -12.08   -0.92   0.000   0.200   0.000    0.00
  14.600   20.52  -11.59   -1.29   0.000   0.200   0.000    0.00
  14.650   20.50  -11.02   -0.36   0.000   0.200   0.000    0.00
  14.700   20.65  -10.87   -0.81   0.000   0.200   0.000    0.00
  14.750   21.79   -7.17   -0.27   0.000   0.200   0.000    0.00
  14.800   21.42   -8.36    0.46   0.000   0.200   0.000    0.00
  14.850   20.47   -7.88    0.28   0.000   0.200   0.000    0.00
  14.900   20.51   -8.56    0.16   0.000   0.200   0.000    0.00
  14.950   20.70   -7.43    1.31   0.000   0.200   0.000    0.00
  15.000   19.83   -7.00    1.28   0.000   0.200   0.000    0.00
  15.050   20.17   -9.30    0.51   0.000   0.200   0.000    0.00
  15.100   20.05   -7.85    0.31   0.000   0.200   0.000    0.00
  15.150   19.34   -6.13   -0.22   0.000   0.200   0.000    0.00
  15.200   19.19   -6.74   -0.17   0.000   0.200   0.000    0.00
  15.250   18.88   -8.54    0.18   0.000   0.200   0.000    0.00
  15.300   19.89   -9.17   -0.47   0.000   0.200   0.000    0.00
  15.350   19.59   -6.85   -1.10   0.000   0.200   0.000    0.00
  15.400   19.67   -5.65   -1.04   0.000   0.200   0.000    0.00
  15.450   19.28   -5.36   -1.04   0.000   0.200   0.000    0.00
  15.500   18.44   -7.86   -0.44   0.000   0.200   0.000    0.00
  15.550   18.64   -7.91   -0.94   0.000   0.200   0.000    0.00
  15.600   18.24   -8.60   -0.86   0.000   0.200   0.000    0.00
  15.650   17.35   -7.10   -0.98   0.000   0.200   0.000    0.00
  15.700   17.20   -8.11    0.99   0.000   0.200   0.000    0.00
  15.750   17.23   -9.70    0.62   0.000   0.200   0.000    0.00
  15.800   17.79  -12.26    0.83   0.000   0.200   0.000    0.00
  15.850   18.65  -10.66   -0.10   0.000   0.200   0.000    0.00
  15.900   18.72  -12.27   -0.39   0.000   0.200   0.000    0.00
  15.950   17.87  -16.36   -0.61   0.000   0.200   0.000    0.00
  16.000   17.43  -14.98    0.22   0.000   0.200   0.000    0.00
  16.050   17.27  -14.25    0.21   0.000   0.200   0.000    0.00
  16.100   17.82  -12.04   -0.04   0.000   0.200   0.000    0.00
  16.150   18.06   -9.01    0.07   0.000   0.200   0.000    0.00
  16.200   18.00  -10.37   -0.99   0.000   0.200   0.000    0.00
  16.250   18.52  -11.19   -0.80   0.000   0.200   0.000    0.00
  16.300   18.55  -11.48    0.03   0.000   0.200   0.000    0.00
  16.350   19.11   -7.89   -0.53   0.000   0.200   0.000    0.00
  16.400   17.67   -5.08   -0.56   0.000   0.200   0.000    0.00
  16.450   17.98   -7.40    0.04   0.000   0.200   0.000    0.00
  16.500   18.55   -7.96    0.35   0.000   0.200   0.000    0.00
  16.550   18.10   -6.67    1.50   0.000   0.200   0.000    0.00
  16.600   18.07   -5.87    0.21   0.000   0.200   0.000    0.00
  16.650   18.20   -6.49    0.35   0.000   0.200   0.000    0.00
  16.700   17.73   -6.10    1.11   0.000   0.200   0.000    0.00
  16.750   16.34   -7.91    0.86   0.000   0.200   0.000    0.00
  16.800   16.55   -8.08    0.54   0.000   0.200   0.000    0.00
  16.850   16.07   -7.56   -0.34   0.000   0.200   0.000    0.00
  16.900   15.92   -7.01   -0.85   0.000   0.200   0.000    0.00
  16.950   15.85   -2.92    0.12   0.000   0.200   0.000    0.00
  17.000   16.05   -2.24   -0.15   0.000   0.200   0.000    0.00
  17.050   16.03   -1.46    0.18   0.000   0.200   0.000    0.00
  17.100   16.55   -7.32    1.45   0.000   0.200   0.000    0.00
  17.150   17.11   -5.50    1.93   0.000   0.200   0.000    0.00
  17.200   17.03   -2.44    1.68   0.000   0.200   0.000    0.00
  17.250   16.55   -3.48    0.35   0.000   0.200   0.000    0.00
  17.300   17.31   -3.08    0.16   0.000   0.200   0.000    0.00
  17.350   17.44   -6.90    0.15   0.000   0.200   0.000    0.00
  17.400   17.22   -8.57   -0.24   0.000   0.200   0.000    0.00
  17.450   17.30   -5.20   -0.36   0.000   0.200   0.000    0.00
  17.500   17.06   -5.31    0.87   0.000   0.200   0.000    0.00
  17.550   16.71   -6.41    0.56   0.000   0.200   0.000    0.00
  17.600   16.70   -6.11    0.63   0.000   0.200   0.000    0.00
  17.650   16.49   -2.60   -0.23   0.000   0.200   0.000    0.00
  17.700   16.48   -2.08    0.84   0.000   0.200   0.000    0.00
  17.750   17.29   -1.29    1.09   0.000   0.200   0.000    0.00
  17.800   17.19   -0.29    1.68   0.000   0.200   0.000    0.00
  17.850   16.12    0.90    1.65   0.000   0.200   0.000    0.00
  17.900   15.63    0.32    1.75   0.000   0.200   0.000    0.00
  17.950   15.45   -4.02    1.77   0.000   0.200   0.000    0.00
  18.000   15.44   -2.50    2.19   0.000   0.200   0.000    0.00
  18.050   16.14   -1.89    1.52   0.000   0.200   0.000    0.00
  18.100   15.51   -6.09    2.33   0.000   0.200   0.000    0.00
  18.150   15.66   -8.99    2.82   0.000   0.200   0.000    0.00
  18.200   16.12   -8.77    2.11   0.000   0.200   0.000    0.00
  18.250   16.51   -5.94    1.61   0.000   0.200   0.000    0.00
  18.300   15.98   -6.42    1.70   0.000   0.200   0.000    0.00
  18.350   15.61   -6.73    2.04   0.000   0.200   0.000    0.00
  18.400   15.69   -3.35    2.19   0.000   0.200   0.000    0.00
  18.450   16.88   -1.12    2.78   0.000   0.200   0.000    0.00
  18.500   17.01   -1.58    3.01   0.000   0.200   0.000    0.00
  18.550   17.15    0.42    3.65   0.000   0.200   0.000    0.00
  18.600   17.07   -0.63    3.02   0.000   0.200   0.000    0.00
  18.650   16.17   -2.48    2.31   0.000   0.200   0.000    0.00
  18.700   15.34   -2.70    0.58   0.000   0.200   0.000    0.00
  18.750   15.14   -2.89   -0.33   0.000   0.200   0.000    0.00
  18.800   15.22   -3.28    0.43   0.000   0.200   0.000    0.00
  18.850   15.72   -2.71    1.50   0.000   0.200   0.000    0.00
  18.900   16.38   -4.43    1.20   0.000   0.200   0.000    0.00
  18.950   16.95   -4.73    1.56   0.000   0.200   0.000    0.00
  19.000   17.20   -7.10    1.62   0.000   0.200   0.000    0.00
  19.050   17.45   -5.41    1.28   0.000   0.200   0.000    0.00
  19.100   17.39   -9.75    1.44   0.000   0.200   0.000    0.00
  19.150   17.91   -9.93    0.07   0.000   0.200   0.000    0.00
  19.200   16.79  -11.71   -0.62   0.000   0.200   0.000    0.00
  19.250   16.93  -11.73   -0.64   0.000   0.200   0.000    0.00
  19.300   17.73  -12.03   -0.44   0.000   0.200   0.000    0.00
  19.350   16.49  -12.22   -0.55   0.000   0.200   0.000    0.00
  19.400   15.65  -14.09   -0.79   0.000   0.200   0.000    0.00
  19.450   15.88  -10.49   -2.35   0.000   0.200   0.000    0.00
  19.500   15.78   -9.94   -1.69   0.000   0.200   0.000    0.00
  19.550   15.27   -6.00   -1.45   0.000   0.200   0.000    0.00
  19.600   15.78   -9.85   -1.07   0.000   0.200   0.000    0.00
  19.650   15.27  -11.21   -0.94   0.000   0.200   0.000    0.00
  19.700   15.60  -11.32   -0.27   0.000   0.200   0.000    0.00
  19.750   15.47  -16.46   -0.20   0.000   0.200   0.000    0.00
  19.800   15.70  -15.53   -0.16   0.000   0.200   0.000    0.00
  19.850   16.59  -12.60   -0.22   0.000   0.200   0.000    0.00
  19.900   16.64  -12.53    0.40   0.000   0.200   0.000    0.00
  19.950   16.32  -14.25    0.55   0.000   0.200   0.000    0.00
  20.000   16.39  -16.27    1.46   0.000   0.200   0.000    0.00
  20.050   16.69  -17.06    0.13   0.000   0.200   0.000    0.00
  20.100   17.33  -18.38   -0.39   0.000   0.200   0.000    0.00
  20.150   17.85  -17.16   -0.37   0.000   0.200   0.000    0.00
  20.200   17.80  -18.50   -0.52   0.000   0.200   0.000    0.00
  20.250   18.36  -17.94   -0.13   0.000   0.200   0.000    0.00
  20.300   18.70  -18.54    0.79   0.000   0.200   0.000    0.00
  20.350   17.77  -19.45    1.42   0.000   0.200   0.000    0.00
  20.400   18.38  -16.85    1.38   0.000   0.200   0.000    0.00
  20.450   19.41  -16.79    1.63   0.000   0.200   0.000    0.00
  20.500   19.25  -11.78    0.84   0.000   0.200   0.000    0.00
  20.550   20.35  -12.98    0.19   0.000   0.200   0.000    0.00
  20.600   19.66  -11.19    0.06   0.000   0.200   0.000    0.00
  20.650   19.44  -11.32   -0.82   0.000   0.200   0.000    0.00
  20.700   19.79   -9.76    0.76   0.000   0.200   0.000    0.00
  20.750   20.18  -11.28    0.97   0.000   0.200   0.000    0.00
  20.800   19.90   -9.98    0.88   0.000   0.200   0.000    0.00
  20.850   20.37  -12.33    0.78   0.000   0.200   0.000    0.00
  20.900   19.57  -12.00    1.29   0.000   0.200   0.000    0.00
  20.950   20.50   -9.30    0.87   0.000   0.200   0.000    0.00
  21.000   19.65   -8.35    1.17   0.000   0.200   0.000    0.00
  21.050   19.77   -8.15    1.46   0.000   0.200   0.000    0.00
  21.100   19.37  -10.50    2.03   0.000   0.200   0.000    0.00
  21.150   18.93   -9.55    1.72   0.000   0.200   0.000    0.00
  21.200   19.19   -9.26    1.00   0.000   0.200   0.000    0.00
  21.250   19.02   -7.54    0.02   0.000   0.200   0.000    0.00
  21.300   18.67   -3.78   -0.57   0.000   0.200   0.000    0.00
  21.350   18.54   -2.70    0.74   0.000   0.200   0.000    0.00
  21.400   18.65   -6.30    1.15   0.000   0.200   0.000    0.00
  21.450   19.42   -7.91    1.08   0.000   0.200   0.000    0.00
  21.500   18.70  -11.13    0.08   0.000   0.200   0.000    0.00
  21.550   17.77  -11.98   -0.74   0.000   0.200   0.000    0.00
  21.600   17.13  -15.35   -0.49   0.000   0.200   0.000    0.00
  21.650   17.24  -15.40    0.17   0.000   0.200   0.000    0.00
  21.700   17.46  -15.45   -1.14   0.000   0.200   0.000    0.00
  21.750   17.51  -11.57   -1.27   0.000   0.200   0.000    0.00
  21.800   16.80  -13.81   -0.61   0.000   0.200   0.000    0.00
  21.850   16.95  -17.25   -1.09   0.000   0.200   0.000    0.00
  21.900   15.88  -15.51   -2.10   0.000   0.200   0.000    0.00
  21.950   15.83  -12.13   -1.81   0.000   0.200   0.000    0.00
  22.000   16.13   -9.44   -2.09   0.000   0.200   0.000    0.00
  22.050   15.84  -12.16   -1.53   0.000   0.200   0.000    0.00
  22.100   16.19  -13.08   -0.84   0.000   0.200   0.000    0.00
  22.150   16.45  -15.98   -1.44   0.000   0.200   0.000    0.00
  22.200   16.26  -18.52   -1.42   0.000   0.200   0.000    0.00
  22.250   16.37  -15.56   -1.32   0.000   0.200   0.000    0.00
  22.300   16.05  -13.02   -1.12   0.000   0.200   0.000    0.00
  22.350   15.86  -16.72   -0.80   0.000   0.200   0.000    0.00