! This hub-height wind-speed file was generated by TurbSim (v1.06.00, 21-Sep-2012) on 16-Jun-2018 at 18:35:48.
!
! The requested statistics for this data were:
!    Mean Total Wind Speed =   11.000 m/s
!    Turbulence Intensity  =   17.627%
!
!   Time  HorSpd  WndDir  VerSpd  HorShr  VerShr  LnVShr  GstSpd
!  (sec)   (m/s)   (deg)   (m/s)     (-)     (-)     (-)   (m/s)
   0.000   11.61    0.64   -0.62   0.000   0.200   0.000    0.00
   0.050   11.42    2.23   -0.36   0.000   0.200   0.000    0.00
   0.100   11.39    3.53   -0.72   0.000   0.200   0.000    0.00
   0.150   11.15    4.50   -0.16   0.000   0.200   0.000    0.00
   0.200   11.44    2.36   -0.02   0.000   0.200   0.000    0.00
   0.250   11.68    4.88   -0.39   0.000   0.200   0.000    0.00
   0.300   11.77    5.11   -0.85   0.000   0.200   0.000    0.00
   0.350   11.56    3.73   -0.86   0.000   0.200   0.000    0.00
   0.400   11.96    3.28   -0.97   0.000   0.200   0.000    0.00
   0.450   12.11    4.25   -0.45   0.000   0.200   0.000    0.00
   0.500   11.92    3.75   -0.33   0.000   0.200   0.000    0.00
   0.550   11.96    5.75    0.35   0.000   0.200   0.000    0.00
   0.600   12.25    6.30    0.05   0.000   0.200   0.000    0.00
   0.650   12.38    4.61    0.21   0.000   0.200   0.000    0.00
   0.700   12.01    4.85    0.10   0.000   0.200   0.000    0.00
   0.750   11.97    4.67    0.31   0.000   0.200   0.000    0.00
   0.800   11.84    7.21    0.24   0.000   0.200   0.000    0.00
   0.850   12.02    5.58   -0.28   0.000   0.200   0.000    0.00
   0.900   11.88    6.60   -0.19   0.000   0.200   0.000    0.00
   0.950   11.43    3.61   -0.52   0.000   0.200   0.000    0.00
   1.000   11.53    3.39   -0.56   0.000   0.200   0.000    0.00
   1.050   12.00    3.03   -0.58   0.000   0.200   0.000    0.00
   1.100   12.15    6.26   -0.55   0.000   0.200   0.000    0.00
   1.150   12.05    8.95   -0.46   0.000   0.200   0.000    0.00
   1.200   11.54    7.77   -0.63   0.000   0.200   0.000    0.00
   1.250   11.65   10.16   -0.15   0.000   0.200   0.000    0.00
   1.300   11.60    7.57    0.14   0.000   0.200   0.000    0.00
   1.350   11.89    4.42   -0.02   0.000   0.200   0.000    0.00
   1.400   11.70    6.28    0.62   0.000   0.200   0.000    0.00
   1.450   11.88    8.90    0.85   0.000   0.200   0.000    0.00
   1.500   12.13    7.82    0.87   0.000   0.200   0.000    0.00
   1.550   12.19    8.44    0.95   0.000   0.200   0.000    0.00
   1.600   11.63    7.15   -0.19   0.000   0.200   0.000    0.00
   1.650   11.54    6.63   -0.31   0.000   0.200   0.000    0.00
   1.700   11.84    5.65   -0.88   0.000   0.200   0.000    0.00
   1.750   11.87    5.27   -1.24   0.000   0.200   0.000    0.00
   1.800   11.80    3.68   -1.41   0.000   0.200   0.000    0.00
   1.850   11.89    1.14   -1.59   0.000   0.200   0.000    0.00
   1.900   11.82    0.60   -1.86   0.000   0.200   0.000    0.00
   1.950   11.75    4.20   -1.87   0.000   0.200   0.000    0.00
   2.000   11.48    5.01   -1.86   0.000   0.200   0.000    0.00
   2.050   11.21    3.73   -1.67   0.000   0.200   0.000    0.00
   2.100   11.11    4.83   -1.37   0.000   0.200   0.000    0.00
   2.150   11.03    6.18   -0.71   0.000   0.200   0.000    0.00
   2.200   11.00    7.00   -0.27   0.000   0.200   0.000    0.00
   2.250   10.83    4.39   -1.15   0.000   0.200   0.000    0.00
   2.300   11.12    6.45   -1.42   0.000   0.200   0.000    0.00
   2.350   11.05    9.32   -1.62   0.000   0.200   0.000    0.00
   2.400   11.20   10.17   -1.54   0.000   0.200   0.000    0.00
   2.450   11.44    8.41   -1.00   0.000   0.200   0.000    0.00
   2.500   11.37    7.46   -0.90   0.000   0.200   0.000    0.00
   2.550   10.51    7.67   -0.67   0.000   0.200   0.000    0.00
   2.600   10.74    8.91   -0.11   0.000   0.200   0.000    0.00
   2.650   11.00   10.80    0.62   0.000   0.200   0.000    0.00
   2.700   11.42   12.28    0.74   0.000   0.200   0.000    0.00
   2.750   11.55   12.55    0.11   0.000   0.200   0.000    0.00
   2.800   11.72   11.19   -0.12   0.000   0.200   0.000    0.00
   2.850   11.37   10.87    0.89   0.000   0.200   0.000    0.00
   2.900   11.78   13.49    0.74   0.000   0.200   0.000    0.00
   2.950   11.68   16.09    0.68   0.000   0.200   0.000    0.00
   3.000   11.63   14.25    1.05   0.000   0.200   0.000    0.00
   3.050   11.51   12.98    0.86   0.000   0.200   0.000    0.00
   3.100   11.74   14.22    0.60   0.000   0.200   0.000    0.00
   3.150   11.54   11.20    0.19   0.000   0.200   0.000    0.00
   3.200   11.14   13.17    0.26   0.000   0.200   0.000    0.00
   3.250   11.45   13.39   -0.08   0.000   0.200   0.000    0.00
   3.300   11.51   11.79   -0.09   0.000   0.200   0.000    0.00
   3.350   11.65    6.90    0.02   0.000   0.200   0.000    0.00
   3.400   11.53    5.55    0.40   0.000   0.200   0.000    0.00
   3.450   11.84    6.85    0.60   0.000   0.200   0.000    0.00
   3.500   12.13    5.83    0.54   0.000   0.200   0.000    0.00
   3.550   11.74    4.28    0.67   0.000   0.200   0.000    0.00
   3.600   11.99    4.73    0.58   0.000   0.200   0.000    0.00
   3.650   12.61    5.32    0.42   0.000   0.200   0.000    0.00
   3.700   12.70    4.21    0.93   0.000   0.200   0.000    0.00
   3.750   12.52    5.25    1.17   0.000   0.200   0.000    0.00
   3.800   12.38    4.63    0.99   0.000   0.200   0.000    0.00
   3.850   12.16    3.29    1.36   0.000   0.200   0.000    0.00
   3.900   11.49    3.40    1.39   0.000   0.200   0.000    0.00
   3.950   11.44    2.62    1.17   0.000   0.200   0.000    0.00
   4.000   11.06    4.22    1.25   0.000   0.200   0.000    0.00
   4.050   10.76    4.38    1.00   0.000   0.200   0.000    0.00
   4.100   11.23    3.68    0.82   0.000   0.200   0.000    0.00
   4.150   11.20    3.90    0.48   0.000   0.200   0.000    0.00
   4.200   11.50    5.61    0.17   0.000   0.200   0.000    0.00
   4.250   11.43    5.45    0.13   0.000   0.200   0.000    0.00
   4.300   11.40    5.28   -0.15   0.000   0.200   0.000    0.00
   4.350   11.40    7.33    0.21   0.000   0.200   0.000    0.00
   4.400   11.45    5.65    0.40   0.000   0.200   0.000    0.00
   4.450   11.88    3.72   -0.24   0.000   0.200   0.000    0.00
   4.500   12.00    6.27   -0.07   0.000   0.200   0.000    0.00
   4.550   12.64    7.53   -0.54   0.000   0.200   0.000    0.00
   4.600   12.53    5.20   -0.86   0.000   0.200   0.000    0.00
   4.650   12.38    6.16   -0.76   0.000   0.200   0.000    0.00
   4.700   12.18    6.67   -0.80   0.000   0.200   0.000    0.00
   4.750   12.00    2.58   -0.24   0.000   0.200   0.000    0.00
   4.800   12.22    0.64   -0.07   0.000   0.200   0.000    0.00
   4.850   12.56    1.26   -0.18   0.000   0.200   0.000    0.00
   4.900   12.29    1.71   -0.48   0.000   0.200   0.000    0.00
   4.950   12.29    2.69   -0.62   0.000   0.200   0.000    0.00
   5.000   11.95    2.55   -0.23   0.000   0.200   0.000    0.00
   5.050   12.01    1.68   -0.06   0.000   0.200   0.000    0.00
   5.100   11.46    2.36   -0.47   0.000   0.200   0.000    0.00
   5.150   11.81    3.76   -0.58   0.000   0.200   0.000    0.00
   5.200   11.13    2.37   -0.23   0.000   0.200   0.000    0.00
   5.250   10.56    5.84    0.23   0.000   0.200   0.000    0.00
   5.300   10.84    5.02   -0.18   0.000   0.200   0.000    0.00
   5.350   10.75    3.24    0.21   0.000   0.200   0.000    0.00
   5.400   11.14    5.44    0.45   0.000   0.200   0.000    0.00
   5.450   11.65    7.08    0.21   0.000   0.200   0.000    0.00
   5.500   11.83    8.76    0.33   0.000   0.200   0.000    0.00
   5.550   12.22    9.25    0.32   0.000   0.200   0.000    0.00
   5.600   12.17    8.48    0.15   0.000   0.200   0.000    0.00
   5.650   12.39    7.20   -0.03   0.000   0.200   0.000    0.00
   5.700   12.29   11.60   -0.20   0.000   0.200   0.000    0.00
   5.750   12.34   10.44   -0.21   0.000   0.200   0.000    0.00
   5.800   12.29   10.19    0.10   0.000   0.200   0.000    0.00
   5.850   12.12    8.90    0.54   0.000   0.200   0.000    0.00
   5.900   12.05   10.62    0.34   0.000   0.200   0.000    0.00
   5.950   12.02   12.57   -0.10   0.000   0.200   0.000    0.00
   6.000   11.40   10.78   -0.39   0.000   0.200   0.000    0.00
   6.050   11.36    8.87   -0.37   0.000   0.200   0.000    0.00
   6.100   11.13    5.84   -0.57   0.000   0.200   0.000    0.00
   6.150   11.29    7.41   -0.76   0.000   0.200   0.000    0.00
   6.200   11.37    8.41   -0.91   0.000   0.200   0.000    0.00
   6.250   11.34    8.15   -0.76   0.000   0.200   0.000    0.00
   6.300   10.75    9.18   -0.12   0.000   0.200   0.000    0.00
   6.350   10.43    9.47    0.20   0.000   0.200   0.000    0.00
   6.400   10.47   10.76    0.31   0.000   0.200   0.000    0.00
   6.450   10.36    9.16    0.04   0.000   0.200   0.000    0.00
   6.500   10.31    9.02   -0.79   0.000   0.200   0.000    0.00
   6.550   10.73    9.86   -0.99   0.000   0.200   0.000    0.00
   6.600   10.29    7.58   -0.91   0.000   0.200   0.000    0.00
   6.650   10.21    2.72   -0.86   0.000   0.200   0.000    0.00
   6.700   10.08    3.29   -0.96   0.000   0.200   0.000    0.00
   6.750   10.82    4.08   -1.68   0.000   0.200   0.000    0.00
   6.800   10.50    2.44   -1.69   0.000   0.200   0.000    0.00
   6.850   10.22    0.60   -1.51   0.000   0.200   0.000    0.00
   6.900   10.60    0.29   -1.62   0.000   0.200   0.000    0.00
   6.950   11.19    1.21   -0.98   0.000   0.200   0.000    0.00
   7.000   11.27    4.18   -0.75   0.000   0.200   0.000    0.00
   7.050   11.24    0.83   -1.21   0.000   0.200   0.000    0.00
   7.100   11.12    0.94   -1.74   0.000   0.200   0.000    0.00
   7.150   10.79    1.68   -1.33   0.000   0.200   0.000    0.00
   7.200   10.80    0.37   -1.22   0.000   0.200   0.000    0.00
   7.250   11.21   -2.74   -1.65   0.000   0.200   0.000    0.00
   7.300   11.77   -1.75   -1.65   0.000   0.200   0.000    0.00
   7.350   11.49    2.13   -1.38   0.000   0.200   0.000    0.00
   7.400   12.19    3.27   -1.80   0.000   0.200   0.000    0.00
   7.450   11.93    3.77   -2.37   0.000   0.200   0.000    0.00
   7.500   12.27    2.93   -2.59   0.000   0.200   0.000    0.00
   7.550   12.39    4.47   -2.15   0.000   0.200   0.000    0.00
   7.600   12.22    7.12   -1.60   0.000   0.200   0.000    0.00
   7.650   11.97    8.96   -1.79   0.000   0.200   0.000    0.00
   7.700   12.32    7.08   -1.81   0.000   0.200   0.000    0.00
   7.750   12.51   10.11   -1.52   0.000   0.200   0.000    0.00
   7.800   12.94    9.80   -1.21   0.000   0.200   0.000    0.00
   7.850   13.13    9.28   -1.07   0.000   0.200   0.000    0.00
   7.900   12.93    9.62   -1.20   0.000   0.200   0.000    0.00
   7.950   12.72    6.09   -1.24   0.000   0.200   0.000    0.00
   8.000   13.08    7.90   -0.94   0.000   0.200   0.000    0.00
   8.050   13.05    8.04   -0.94   0.000   0.200   0.000    0.00
   8.100   13.00    3.57   -1.41   0.000   0.200   0.000    0.00
   8.150   12.72    2.99   -1.61   0.000   0.200   0.000    0.00
   8.200   12.75    2.41   -1.36   0.000   0.200   0.000    0.00
   8.250   12.80    3.06   -1.55   0.000   0.200   0.000    0.00
   8.300   12.90    3.16   -1.31   0.000   0.200   0.000    0.00
   8.350   12.90    5.33   -0.71   0.000   0.200   0.000    0.00
   8.400   12.56    4.47   -0.55   0.000   0.200   0.000    0.00
   8.450   12.59    4.58   -0.52   0.000   0.200   0.000    0.00
   8.500   12.39    6.43   -0.73   0.000   0.200   0.000    0.00
   8.550   12.38    7.04   -0.57   0.000   0.200   0.000    0.00
   8.600   12.23    6.80   -0.83   0.000   0.200   0.000    0.00
   8.650   11.98    4.43   -0.91   0.000   0.200   0.000    0.00
   8.700   12.35    3.92   -0.23   0.000   0.200   0.000    0.00
   8.750   12.98    4.60   -0.46   0.000   0.200   0.000    0.00
   8.800   12.71    4.68   -0.11   0.000   0.200   0.000    0.00
   8.850   12.75    2.94   -0.23   0.000   0.200   0.000    0.00
   8.900   13.12    4.34   -0.59   0.000   0.200   0.000    0.00
   8.950   12.93    6.08   -0.66   0.000   0.200   0.000    0.00
   9.000   13.23    3.34   -0.92   0.000   0.200   0.000    0.00
   9.050   13.43    2.05   -1.40   0.000   0.200   0.000    0.00
   9.100   13.56    2.33   -1.36   0.000   0.200   0.000    0.00
   9.150   13.55    4.41   -1.49   0.000   0.200   0.000    0.00
   9.200   12.91    6.46   -0.94   0.000   0.200   0.000    0.00
   9.250   13.03    4.76   -0.61   0.000   0.200   0.000    0.00
   9.300   12.84    6.79   -0.64   0.000   0.200   0.000    0.00
   9.350   12.69    7.86   -1.04   0.000   0.200   0.000    0.00
   9.400   13.34    5.14   -1.70   0.000   0.200   0.000    0.00
   9.450   13.53    2.66   -1.64   0.000   0.200   0.000    0.00
   9.500   13.37    3.44   -1.54   0.000   0.200   0.000    0.00
   9.550   13.37    5.44   -1.25   0.000   0.200   0.000    0.00
   9.600   13.74    7.32   -1.36   0.000   0.200   0.000    0.00
   9.650   13.88    9.00   -0.95   0.000   0.200   0.000    0.00
   9.700   14.01    7.44   -1.23   0.000   0.200   0.000    0.00
   9.750   14.55    4.66   -1.54   0.000   0.200   0.000    0.00
   9.800   14.89    4.98   -1.44   0.000   0.200   0.000    0.00
   9.850   14.77    3.22   -1.76   0.000   0.200   0.000    0.00
   9.900   14.73    1.00   -1.87   0.000   0.200   0.000    0.00
   9.950   14.23    1.85   -1.73   0.000   0.200   0.000    0.00
  10.000   14.26    1.29   -1.25   0.000   0.200   0.000    0.00
  10.050   14.64    2.38   -1.26   0.000   0.200   0.000    0.00
  10.100   14.74    6.44   -1.36   0.000   0.200   0.000    0.00
  10.150   14.67    6.80   -1.70   0.000   0.200   0.000    0.00
  10.200   14.95    5.73   -1.51   0.000   0.200   0.000    0.00
  10.250   15.08    4.63   -1.39   0.000   0.200   0.000    0.00
  10.300   14.79    4.06   -0.97   0.000   0.200   0.000    0.00
  10.350   14.98    4.45   -0.97   0.000   0.200   0.000    0.00
  10.400   14.90    2.34   -0.77   0.000   0.200   0.000    0.00
  10.450   15.04    3.90   -0.66   0.000   0.200   0.000    0.00
  10.500   15.00    3.19   -0.85   0.000   0.200   0.000    0.00
  10.550   14.87    1.88   -1.11   0.000   0.200   0.000    0.00
  10.600   14.69    2.65   -0.82   0.000   0.200   0.000    0.00
  10.650   15.00    2.02   -1.19   0.000   0.200   0.000    0.00
  10.700   14.79    1.93   -1.06   0.000   0.200   0.000    0.00
  10.750   14.67    0.21   -0.29   0.000   0.200   0.000    0.00
  10.800   14.65   -0.77   -0.56   0.000   0.200   0.000    0.00
  10.850   14.54   -0.09   -0.51   0.000   0.200   0.000    0.00
  10.900   14.52    0.98   -0.66   0.000   0.200   0.000    0.00
  10.950   14.58    2.82   -0.18   0.000   0.200   0.000    0.00
  11.000   14.77    2.86    0.33   0.000   0.200   0.000    0.00
  11.050   14.72    1.31    0.84   0.000   0.200   0.000    0.00
  11.100   15.01   -0.38    0.60   0.000   0.200   0.000    0.00
  11.150   14.94    1.40    0.34   0.000   0.200   0.000    0.00
  11.200   14.69    0.40    0.36   0.000   0.200   0.000    0.00
  11.250   14.08    1.88    0.27   0.000   0.200   0.000    0.00
  11.300   14.33    1.86    0.41   0.000   0.200   0.000    0.00
  11.350   14.09    2.12    0.97   0.000   0.200   0.000    0.00
  11.400   13.66    0.59    0.33   0.000   0.200   0.000    0.00
  11.450   13.67    2.08    0.65   0.000   0.200   0.000    0.00
  11.500   13.17    1.35    0.70   0.000   0.200   0.000    0.00
  11.550   13.35   -1.65    0.80   0.000   0.200   0.000    0.00
  11.600   13.26   -4.26    0.61   0.000   0.200   0.000    0.00
  11.650   13.47   -2.70    0.54   0.000   0.200   0.000    0.00
  11.700   13.86   -3.07    0.44   0.000   0.200   0.000    0.00
  11.750   14.06   -2.59    0.69   0.000   0.200   0.000    0.00
  11.800   14.59   -1.79   -0.14   0.000   0.200   0.000    0.00
  11.850   14.38   -1.17    0.59   0.000   0.200   0.000    0.00
  11.900   14.36    1.16    0.49   0.000   0.200   0.000    0.00
  11.950   14.66    1.02    0.39   0.000   0.200   0.000    0.00
  12.000   13.90    1.71    0.70   0.000   0.200   0.000    0.00
  12.050   13.51    1.71    0.68   0.000   0.200   0.000    0.00
  12.100   13.99    0.80    0.75   0.000   0.200   0.000    0.00
  12.150   13.86   -0.09    0.83   0.000   0.200   0.000    0.00
  12.200   13.84    0.80    0.59   0.000   0.200   0.000    0.00
  12.250   13.82   -0.59   -0.15   0.000   0.200   0.000    0.00
  12.300   14.12   -0.68   -0.58   0.000   0.200   0.000    0.00
  12.350   14.14    1.75   -0.26   0.000   0.200   0.000    0.00
  12.400   13.30    1.10    0.32   0.000   0.200   0.000    0.00
  12.450   13.38    0.55    0.21   0.000   0.200   0.000    0.00
  12.500   13.71    0.37   -0.87   0.000   0.200   0.000    0.00
  12.550   13.41   -1.90   -0.43   0.000   0.200   0.000    0.00
  12.600   13.12   -1.97   -0.84   0.000   0.200   0.000    0.00
  12.650   13.36   -2.29   -0.19   0.000   0.200   0.000    0.00
  12.700   13.36   -3.60    0.13   0.000   0.200   0.000    0.00
  12.750   13.80   -2.00   -0.68   0.000   0.200   0.000    0.00
  12.800   13.54   -2.19   -0.85   0.000   0.200   0.000    0.00
  12.850   13.43   -1.32   -0.77   0.000   0.200   0.000    0.00
  12.900   13.82    0.55   -0.71   0.000   0.200   0.000    0.00
  12.950   14.08    0.20   -0.59   0.000   0.200   0.000    0.00
  13.000   13.89   -1.15   -0.57   0.000   0.200   0.000    0.00
  13.050   14.10   -0.58   -0.82   0.000   0.200   0.000    0.00
  13.100   13.69   -2.02   -1.05   0.000   0.200   0.000    0.00
  13.150   13.88   -0.78   -1.22   0.000   0.200   0.000    0.00
  13.200   13.72   -1.04   -1.27   0.000   0.200   0.000    0.00
  13.250   13.86   -0.88   -0.86   0.000   0.200   0.000    0.00
  13.300   14.30    0.30   -0.40   0.000   0.200   0.000    0.00
  13.350   14.54   -0.19   -0.61   0.000   0.200   0.000    0.00
  13.400   14.65    0.28   -0.60   0.000   0.200   0.000    0.00
  13.450   14.42   -1.76   -0.66   0.000   0.200   0.000    0.00
  13.500   13.96   -3.52   -0.53   0.000   0.200   0.000    0.00
  13.550   14.16   -2.14   -1.15   0.000   0.200   0.000    0.00
  13.600   13.60   -1.44   -0.53   0.000   0.200   0.000    0.00
  13.650   13.17   -1.09   -0.44   0.000   0.200   0.000    0.00
  13.700   12.72    1.55   -0.22   0.000   0.200   0.000    0.00
  13.750   12.97    0.21   -0.60   0.000   0.200   0.000    0.00
  13.800   13.20   -0.27   -1.03   0.000   0.200   0.000    0.00
  13.850   12.93   -0.02   -0.91   0.000   0.200   0.000    0.00
  13.900   13.20   -1.18   -1.21   0.000   0.200   0.000    0.00
  13.950   13.62    0.62   -0.54   0.000   0.200   0.000    0.00
  14.000   13.28   -0.52   -0.31   0.000   0.200   0.000    0.00
  14.050   13.56   -2.24   -0.47   0.000   0.200   0.000    0.00
  14.100   13.81   -2.55   -0.55   0.000   0.200   0.000    0.00
  14.150   13.88   -0.78   -0.61   0.000   0.200   0.000    0.00
  14.200   13.96    0.68   -0.01   0.000   0.200   0.000    0.00
  14.250   14.24    0.46    0.50   0.000   0.200   0.000    0.00
  14.300   14.38   -0.73    0.08   0.000   0.200   0.000    0.00
  14.350   13.80   -2.36   -0.07   0.000   0.200   0.000    0.00
  14.400   13.94   -3.03   -0.01   0.000   0.200   0.000    0.00
  14.450   13.91   -5.40    0.05   0.000   0.200   0.000    0.00
  14.500   13.67   -2.63    0.06   0.000   0.200   0.000    0.00
  14.550   14.05   -2.41   -0.07   0.000   0.200   0.000    0.00
  14.600   14.09   -0.98   -0.08   0.000   0.200   0.000    0.00
  14.650   13.91   -2.72    0.13   0.000   0.200   0.000    0.00
  14.700   13.47   -3.73   -0.03   0.000   0.200   0.000    0.00
  14.750   13.80   -2.28   -0.51   0.000   0.200   0.000    0.00
  14.800   13.50   -2.54    0.02   0.000   0.200   0.000    0.00
  14.850   13.72   -0.68   -0.57   0.000   0.200   0.000    0.00
  14.900   14.04    1.31   -0.71   0.000   0.200   0.000    0.00
  14.950   13.93    2.23   -0.27   0.000   0.200   0.000    0.00
  15.000   13.43    2.82   -0.59   0.000   0.200   0.000    0.00
  15.050   13.94    2.20   -0.34   0.000   0.200   0.000    0.00
  15.100   13.77    3.25   -0.09   0.000   0.200   0.000    0.00
  15.150   14.50    0.92   -0.58   0.000   0.200   0.000    0.00
  15.200   14.03    2.59   -0.77   0.000   0.200   0.000    0.00
  15.250   13.87    0.15   -0.77   0.000   0.200   0.000    0.00
  15.300   14.27    1.10   -0.85   0.000   0.200   0.000    0.00
  15.350   14.39    1.38   -0.88   0.000   0.200   0.000    0.00
  15.400   14.03    3.26   -0.36   0.000   0.200   0.000    0.00
  15.450   13.84    3.48   -0.29   0.000   0.200   0.000    0.00
  15.500   13.39    0.63   -0.42   0.000   0.200   0.000    0.00
  15.550   13.00   -1.07   -0.60   0.000   0.200   0.000    0.00
  15.600   13.34   -2.05   -0.68   0.000   0.200   0.000    0.00
  15.650   13.32   -2.82   -0.80   0.000   0.200   0.000    0.00
  15.700   13.29   -3.87   -0.44   0.000   0.200   0.000    0.00
  15.750   13.15   -3.19   -0.29   0.000   0.200   0.000    0.00
  15.800   13.27   -1.28   -0.08   0.000   0.200   0.000    0.00
  15.850   13.64   -2.10   -0.08   0.000   0.200   0.000    0.00
  15.900   13.51   -1.67   -0.04   0.000   0.200   0.000    0.00
  15.950   13.66    0.58   -0.25   0.000   0.200   0.000    0.00
  16.000   13.73    0.84   -0.36   0.000   0.200   0.000    0.00
  16.050   13.50    0.65   -0.36   0.000   0.200   0.000    0.00
  16.100   13.55    0.28   -0.35   0.000   0.200   0.000    0.00
  16.150   13.78   -0.54   -0.45   0.000   0.200   0.000    0.00
  16.200   13.56   -1.33   -0.24   0.000   0.200   0.000    0.00
  16.250   13.75   -0.36   -0.35   0.000   0.200   0.000    0.00
  16.300   13.51    2.33   -0.81   0.000   0.200   0.000    0.00
  16.350   13.70    2.83   -0.84   0.000   0.200   0.000    0.00
  16.400   13.84    1.78   -0.68   0.000   0.200   0.000    0.00
  16.450   13.11    2.89   -0.62   0.000   0.200   0.000    0.00
  16.500   13.27    2.35   -0.32   0.000   0.200   0.000    0.00
  16.550   13.37    1.94   -0.54   0.000   0.200   0.000    0.00
  16.600   13.25    0.00   -0.74   0.000   0.200   0.000    0.00
  16.650   12.98   -1.45   -0.39   0.000   0.200   0.000    0.00
  16.700   12.83   -1.61   -0.71   0.000   0.200   0.000    0.00
  16.750   12.48   -2.44   -0.63   0.000   0.200   0.000    0.00
  16.800   12.51   -1.59   -0.49   0.000   0.200   0.000    0.00
  16.850   12.40   -1.67   -0.06   0.000   0.200   0.000    0.00
  16.900   12.55   -1.50    0.24   0.000   0.200   0.000    0.00
  16.950   12.69    1.15    0.18   0.000   0.200   0.000    0.00
  17.000   12.44    0.70   -0.04   0.000   0.200   0.000    0.00
  17.050   12.12   -1.13    0.33   0.000   0.200   0.000    0.00
  17.100   11.86    0.80   -0.23   0.000   0.200   0.000    0.00
  17.150   11.71   -2.14   -0.92   0.000   0.200   0.000    0.00
  17.200   11.74   -3.14   -1.60   0.000   0.200   0.000    0.00
  17.250   11.97   -3.56   -1.24   0.000   0.200   0.000    0.00
  17.300   11.70   -4.80   -1.12   0.000   0.200   0.000    0.00
  17.350   11.83   -2.00   -1.16   0.000   0.200   0.000    0.00
  17.400   11.86   -4.82   -0.88   0.000   0.200   0.000    0.00
  17.450   11.73   -4.43   -0.97   0.000   0.200   0.000    0.00
  17.500   11.81   -6.21   -0.98   0.000   0.200   0.000    0.00
  17.550   11.51   -5.50   -1.30   0.000   0.200   0.000    0.00
  17.600   11.69   -4.57   -1.33   0.000   0.200   0.000    0.00
  17.650   12.11   -8.11   -1.73   0.000   0.200   0.000    0.00
  17.700   12.31   -7.62   -1.38   0.000   0.200   0.000    0.00
  17.750   12.35  -10.45   -1.20   0.000   0.200   0.000    0.00
  17.800   12.44   -8.60   -1.56   0.000   0.200   0.000    0.00
  17.850   12.25  -10.04   -1.42   0.000   0.200   0.000    0.00
  17.900   12.52  -11.68   -1.84   0.000   0.200   0.000    0.00
  17.950   12.36   -8.63   -2.20   0.000   0.200   0.000    0.00
  18.000   11.79   -8.40   -2.15   0.000   0.200   0.000    0.00
  18.050   11.96   -6.18   -2.07   0.000   0.200   0.000    0.00
  18.100   12.42   -3.59   -1.68   0.000   0.200   0.000    0.00
  18.150   12.60   -3.91   -1.50   0.000   0.200   0.000    0.00
  18.200   12.59   -3.57   -1.29   0.000   0.200   0.000    0.00
  18.250   12.15   -4.23   -1.75   0.000   0.200   0.000    0.00
  18.300   11.77   -2.80   -1.20   0.000   0.200   0.000    0.00
  18.350   11.78   -2.36   -1.48   0.000   0.200   0.000    0.00
  18.400   12.42   -5.25   -1.29   0.000   0.200   0.000    0.00
  18.450   12.64   -4.00   -1.11   0.000   0.200   0.000    0.00
  18.500   12.92   -4.85   -1.21   0.000   0.200   0.000    0.00
  18.550   12.47   -3.27   -1.40   0.000   0.200   0.000    0.00
  18.600   12.57   -4.22   -1.78   0.000   0.200   0.000    0.00
  18.650   12.40   -6.06   -1.67   0.000   0.200   0.000    0.00
  18.700   12.50   -1.93   -1.53   0.000   0.200   0.000    0.00
  18.750   12.55   -1.28   -1.57   0.000   0.200   0.000    0.00
  18.800   12.30   -0.02   -1.26   0.000   0.200   0.000    0.00
  18.850   12.56   -0.62   -1.18   0.000   0.200   0.000    0.00
  18.900   12.65   -0.96   -0.94   0.000   0.200   0.000    0.00
  18.950   12.81    0.26   -1.00   0.000   0.200   0.000    0.00
  19.000   12.80    1.94   -0.91   0.000   0.200   0.000    0.00
  19.050   12.84    3.17   -0.49   0.000   0.200   0.000    0.00
  19.100   12.49    3.16   -1.13   0.000   0.200   0.000    0.00
  19.150   12.30    1.51   -0.71   0.000   0.200   0.000    0.00
  19.200   12.42    0.86   -0.58   0.000   0.200   0.000    0.00
  19.250   12.55    1.09   -1.34   0.000   0.200   0.000    0.00
  19.300   12.67   -2.09   -1.24   0.000   0.200   0.000    0.00
  19.350   12.45   -4.95   -1.28   0.000   0.200   0.000    0.00
  19.400   12.44   -1.44   -1.13   0.000   0.200   0.000    0.00
  19.450   12.35    0.17   -0.93   0.000   0.200   0.000    0.00
  19.500   12.21    0.23   -0.86   0.000   0.200   0.000    0.00
  19.550   12.76   -3.13   -1.18   0.000   0.200   0.000    0.00
  19.600   13.19   -5.75   -1.58   0.000   0.200   0.000    0.00
  19.650   12.90   -8.29   -1.45   0.000   0.200   0.000    0.00
  19.700   12.84   -6.14   -1.69   0.000   0.200   0.000    0.00
  19.750   12.69   -6.18   -1.76   0.000   0.200   0.000    0.00
  19.800   12.91   -4.92   -1.70   0.000   0.200   0.000    0.00
  19.850   12.91   -6.14   -1.66   0.000   0.200   0.000    0.00
  19.900   13.32   -8.17   -1.43   0.000   0.200   0.000    0.00
  19.950   13.18   -8.77   -0.86   0.000   0.200   0.000    0.00
  20.000   13.46   -8.50   -0.57   0.000   0.200   0.000    0.00
  20.050   13.26   -6.11   -1.30   0.000   0.200   0.000    0.00
  20.100   12.98   -4.06   -1.19   0.000   0.200   0.000    0.00
  20.150   13.29   -5.49   -0.74   0.000   0.200   0.000    0.00
  20.200   13.65   -5.60   -1.01   0.000   0.200   0.000    0.00
  20.250   13.36   -6.76   -1.02   0.000   0.200   0.000    0.00
  20.300   13.32   -4.58   -1.05   0.000   0.200   0.000    0.00
  20.350   13.58   -2.61   -1.10   0.000   0.200   0.000    0.00
  20.400   13.38   -1.81   -1.16   0.000   0.200   0.000    0.00
  20.450   13.39   -0.39   -1.44   0.000   0.200   0.000    0.00
  20.500   13.17    0.60   -1.67   0.000   0.200   0.000    0.00
  20.550   13.03    2.45   -2.03   0.000   0.200   0.000    0.00
  20.600   13.24    1.07   -2.19   0.000   0.200   0.000    0.00
  20.650   13.41    2.62   -1.49   0.000   0.200   0.000    0.00
  20.700   13.59    1.47   -1.26   0.000   0.200   0.000    0.00
  20.750   13.93    0.36   -0.56   0.000   0.200   0.000    0.00
  20.800   14.03    0.00   -0.28   0.000   0.200   0.000    0.00
  20.850   13.84    2.95   -1.03   0.000   0.200   0.000    0.00
  20.900   13.93    3.28   -0.65   0.000   0.200   0.000    0.00
  20.950   13.16    1.60   -0.78   0.000   0.200   0.000    0.00
  21.000   13.43    1.67   -0.81   0.000   0.200   0.000    0.00
  21.050   13.55    1.77   -0.56   0.000   0.200   0.000    0.00
  21.100   13.35   -0.11   -1.16   0.000   0.200   0.000    0.00
  21.150   12.84    0.08   -1.54   0.000   0.200   0.000    0.00
  21.200   13.09    0.73   -1.48   0.000   0.200   0.000    0.00
  21.250   13.08    1.20   -1.07   0.000   0.200   0.000    0.00
  21.300   13.52    0.86   -1.12   0.000   0.200   0.000    0.00
  21.350   13.49   -0.53   -1.20   0.000   0.200   0.000    0.00
  21.400   13.55   -0.99   -1.25   0.000   0.200   0.000    0.00
  21.450   13.29   -0.92   -1.41   0.000   0.200   0.000    0.00
  21.500   13.41   -1.87   -1.24   0.000   0.200   0.000    0.00
  21.550   13.44   -2.62   -1.30   0.000   0.200   0.000    0.00
  21.600   13.62   -3.25   -1.28   0.000   0.200   0.000    0.00
  21.650   13.64   -2.05   -1.16   0.000   0.200   0.000    0.00
  21.700   13.88   -3.32   -0.75   0.000   0.200   0.000    0.00
  21.750   14.04   -4.21   -0.95   0.000   0.200   0.000    0.00
  21.800   13.83   -4.08   -0.93   0.000   0.200   0.000    0.00
  21.850   14.10   -2.42   -0.97   0.000   0.200   0.000    0.00
  21.900   14.09   -0.06   -1.64   0.000   0.200   0.000    0.00
  21.950   14.07    2.11   -1.57   0.000   0.200   0.000    0.00
  22.000   13.90    2.69   -1.59   0.000   0.200   0.000    0.00
  22.050   13.73    3.69   -1.67   0.000   0.200   0.000    0.00
  22.100   13.28    4.30   -1.53   0.000   0.200   0.000    0.00
  22.150   13.41    4.90   -1.15   0.000   0.200   0.000    0.00
  22.200   13.66    3.97   -1.33   0.000   0.200   0.000    0.00
  22.250   13.67    5.53   -0.95   0.000   0.200   0.000    0.00
  22.300   13.71    4.26   -0.98   0.000   0.200   0.000    0.00
  22.350   13.21    2.80   -1.25   0.000   0.200   0.000    0.00