! This hub-height wind-speed file was generated by TurbSim (v1.06.00, 21-Sep-2012) on 16-Jun-2018 at 18:36:14.
!
! The requested statistics for this data were:
!    Mean Total Wind Speed =   17.000 m/s
!    Turbulence Intensity  =   15.112%
!
!   Time  HorSpd  WndDir  VerSpd  HorShr  VerShr  LnVShr  GstSpd
!  (sec)   (m/s)   (deg)   (m/s)     (-)     (-)     (-)   (m/s)
   0.000   18.75  -14.41    0.17   0.000   0.200   0.000    0.00
   0.050   18.89  -15.70    0.02   0.000   0.200   0.000    0.00
   0.100   19.77  -16.17   -0.20   0.000   0.200   0.000    0.00
   0.150   19.81  -14.19   -0.05   0.000   0.200   0.000    0.00
   0.200   19.69  -13.34    0.28   0.000   0.200   0.000    0.00
   0.250   19.89  -15.04    0.44   0.000   0.200   0.000    0.00
   0.300   19.51  -14.81   -0.27   0.000   0.200   0.000    0.00
   0.350   19.60  -15.22    0.31   0.000   0.200   0.000    0.00
   0.400   19.83  -12.36   -0.22   0.000   0.200   0.000    0.00
   0.450   20.59  -10.37    0.32   0.000   0.200   0.000    0.00
   0.500   20.46  -10.91    1.32   0.000   0.200   0.000    0.00
   0.550   20.07   -9.26    1.55   0.000   0.200   0.000    0.00
   0.600   19.77  -11.71    1.12   0.000   0.200   0.000    0.00
   0.650   20.31  -11.37    0.19   0.000   0.200   0.000    0.00
   0.700   19.75   -9.01   -0.05   0.000   0.200   0.000    0.00
   0.750   19.29   -9.30    0.14   0.000   0.200   0.000    0.00
   0.800   18.68   -7.86   -0.62   0.000   0.200   0.000    0.00
   0.850   18.40   -6.46   -0.98   0.000   0.200   0.000    0.00
   0.900   18.38   -6.40   -1.25   0.000   0.200   0.000    0.00
   0.950   18.50   -7.95   -1.06   0.000   0.200   0.000    0.00
   1.000   18.84   -5.92   -0.77   0.000   0.200   0.000    0.00
   1.050   17.98   -7.07   -1.14   0.000   0.200   0.000    0.00
   1.100   17.99   -6.17   -1.29   0.000   0.200   0.000    0.00
   1.150   16.86   -6.95   -1.33   0.000   0.200   0.000    0.00
   1.200   16.62   -7.79   -0.76   0.000   0.200   0.000    0.00
   1.250   16.78   -7.29   -0.12   0.000   0.200   0.000    0.00
   1.300   16.98   -8.87   -0.53   0.000   0.200   0.000    0.00
   1.350   17.56   -8.90   -0.01   0.000   0.200   0.000    0.00
   1.400   17.69   -8.28    0.08   0.000   0.200   0.000    0.00
   1.450   17.42   -9.14   -0.65   0.000   0.200   0.000    0.00
   1.500   16.97  -10.56   -0.51   0.000   0.200   0.000    0.00
   1.550   17.21  -10.62    0.37   0.000   0.200   0.000    0.00
   1.600   16.85  -11.26    0.52   0.000   0.200   0.000    0.00
   1.650   17.08   -9.03    1.03   0.000   0.200   0.000    0.00
   1.700   16.52   -9.35    1.18   0.000   0.200   0.000    0.00
   1.750   16.07  -10.52    1.13   0.000   0.200   0.000    0.00
   1.800   15.91  -12.88    1.61   0.000   0.200   0.000    0.00
   1.850   15.97  -14.14    1.61   0.000   0.200   0.000    0.00
   1.900   16.13  -14.03    0.77   0.000   0.200   0.000    0.00
   1.950   16.81  -14.28    0.86   0.000   0.200   0.000    0.00
   2.000   16.77  -13.51   -0.09   0.000   0.200   0.000    0.00
   2.050   16.31  -11.31   -0.12   0.000   0.200   0.000    0.00
   2.100   16.76  -11.15    0.15   0.000   0.200   0.000    0.00
   2.150   17.46  -12.65   -0.20   0.000   0.200   0.000    0.00
   2.200   17.14  -10.00   -0.53   0.000   0.200   0.000    0.00
   2.250   16.69  -10.49   -1.62   0.000   0.200   0.000    0.00
   2.300   16.66  -13.61   -1.70   0.000   0.200   0.000    0.00
   2.350   16.60  -13.04   -1.16   0.000   0.200   0.000    0.00
   2.400   16.24  -11.49   -1.24   0.000   0.200   0.000    0.00
   2.450   16.49  -11.21   -1.95   0.000   0.200   0.000    0.00
   2.500   15.86   -8.36   -2.37   0.000   0.200   0.000    0.00
   2.550   16.09  -11.97   -2.75   0.000   0.200   0.000    0.00
   2.600   16.42  -11.20   -2.16   0.000   0.200   0.000    0.00
   2.650   15.83  -12.06   -1.70   0.000   0.200   0.000    0.00
   2.700   16.57   -9.58   -0.27   0.000   0.200   0.000    0.00
   2.750   16.70   -6.04   -0.23   0.000   0.200   0.000    0.00
   2.800   17.04   -3.83   -0.67   0.000   0.200   0.000    0.00
   2.850   17.37   -6.21   -0.51   0.000   0.200   0.000    0.00
   2.900   17.94   -5.54   -0.94   0.000   0.200   0.000    0.00
   2.950   18.10   -6.69    0.09   0.000   0.200   0.000    0.00
   3.000   18.56   -7.71   -0.84   0.000   0.200   0.000    0.00
   3.050   18.26   -5.86   -0.91   0.000   0.200   0.000    0.00
   3.100   18.42   -4.12    0.08   0.000   0.200   0.000    0.00
   3.150   18.22   -6.17   -0.03   0.000   0.200   0.000    0.00
   3.200   18.47   -6.27    0.27   0.000   0.200   0.000    0.00
   3.250   18.39   -3.44    0.49   0.000   0.200   0.000    0.00
   3.300   17.78   -3.60   -0.09   0.000   0.200   0.000    0.00
   3.350   17.68   -5.17    1.20   0.000   0.200   0.000    0.00
   3.400   18.30   -6.27    0.85   0.000   0.200   0.000    0.00
   3.450   18.53   -5.06   -0.06   0.000   0.200   0.000    0.00
   3.500   18.60   -4.96    0.57   0.000   0.200   0.000    0.00
   3.550   18.30   -5.89    0.29   0.000   0.200   0.000    0.00
   3.600   18.17   -6.57    0.71   0.000   0.200   0.000    0.00
   3.650   17.94   -8.56    1.16   0.000   0.200   0.000    0.00
   3.700   16.94   -8.65    0.41   0.000   0.200   0.000    0.00
   3.750   17.78   -9.56    0.99   0.000   0.200   0.000    0.00
   3.800   18.70   -9.69    0.77   0.000   0.200   0.000    0.00
   3.850   18.67   -7.81    0.38   0.000   0.200   0.000    0.00
   3.900   18.77   -8.56    0.22   0.000   0.200   0.000    0.00
   3.950   19.31   -8.95    0.61   0.000   0.200   0.000    0.00
   4.000   18.69   -9.58    0.42   0.000   0.200   0.000    0.00
   4.050   18.07   -9.87    0.83   0.000   0.200   0.000    0.00
   4.100   18.77  -13.48    2.33   0.000   0.200   0.000    0.00
   4.150   19.13  -16.54    1.94   0.000   0.200   0.000    0.00
   4.200   19.46  -17.78    1.40   0.000   0.200   0.000    0.00
   4.250   20.00  -17.84    1.65   0.000   0.200   0.000    0.00
   4.300   20.72  -18.34    1.22   0.000   0.200   0.000    0.00
   4.350   21.36  -16.39    1.28   0.000   0.200   0.000    0.00
   4.400   21.10  -16.37    1.65   0.000   0.200   0.000    0.00
   4.450   20.22  -16.05    1.48   0.000   0.200   0.000    0.00
   4.500   20.10  -12.77    1.49   0.000   0.200   0.000    0.00
   4.550   19.89  -10.05    1.11   0.000   0.200   0.000    0.00
   4.600   19.78   -9.20   -0.05   0.000   0.200   0.000    0.00
   4.650   20.85  -10.58   -0.44   0.000   0.200   0.000    0.00
   4.700   20.87  -11.47    0.07   0.000   0.200   0.000    0.00
   4.750   20.78  -12.33   -0.03   0.000   0.200   0.000    0.00
   4.800   20.12  -10.76   -0.29   0.000   0.200   0.000    0.00
   4.850   19.51   -8.32    0.50   0.000   0.200   0.000    0.00
   4.900   20.17  -10.80    0.80   0.000   0.200   0.000    0.00
   4.950   20.02  -12.17    0.44   0.000   0.200   0.000    0.00
   5.000   19.23   -9.69    0.97   0.000   0.200   0.000    0.00
   5.050   19.02  -10.51    1.19   0.000   0.200   0.000    0.00
   5.100   19.35  -10.22    1.10   0.000   0.200   0.000    0.00
   5.150   19.75   -9.34    1.28   0.000   0.200   0.000    0.00
   5.200   19.80  -10.58    1.11   0.000   0.200   0.000    0.00
   5.250   20.97  -10.59    1.39   0.000   0.200   0.000    0.00
   5.300   21.14  -10.00    0.35   0.000   0.200   0.000    0.00
   5.350   20.08  -11.30    1.02   0.000   0.200   0.000    0.00
   5.400   19.99  -11.12    0.34   0.000   0.200   0.000    0.00
   5.450   20.15  -10.91    1.16   0.000   0.200   0.000    0.00
   5.500   19.76  -11.73    1.12   0.000   0.200   0.000    0.00
   5.550   19.21  -10.88    1.08   0.000   0.200   0.000    0.00
   5.600   19.15  -10.50    1.75   0.000   0.200   0.000    0.00
   5.650   18.73  -13.40    1.54   0.000   0.200   0.000    0.00
   5.700   18.11  -14.60    1.70   0.000   0.200   0.000    0.00
   5.750   17.95  -15.64    1.88   0.000   0.200   0.000    0.00
   5.800   18.45  -16.13    1.46   0.000   0.200   0.000    0.00
   5.850   18.76  -17.55    1.19   0.000   0.200   0.000    0.00
   5.900   18.29  -16.14    2.03   0.000   0.200   0.000    0.00
   5.950   18.42  -16.81    1.84   0.000   0.200   0.000    0.00
   6.000   18.68  -15.29    1.26   0.000   0.200   0.000    0.00
   6.050   18.46  -15.56    2.13   0.000   0.200   0.000    0.00
   6.100   18.80  -14.04    0.55   0.000   0.200   0.000    0.00
   6.150   19.02  -15.74    0.42   0.000   0.200   0.000    0.00
   6.200   18.93  -14.69    0.78   0.000   0.200   0.000    0.00
   6.250   18.99  -15.85    1.04   0.000   0.200   0.000    0.00
   6.300   18.30  -19.29    1.02   0.000   0.200   0.000    0.00
   6.350   18.06  -17.62    1.05   0.000   0.200   0.000    0.00
   6.400   18.80  -15.89    1.42   0.000   0.200   0.000    0.00
   6.450   18.91  -16.50    1.59   0.000   0.200   0.000    0.00
   6.500   19.20  -18.09    0.32   0.000   0.200   0.000    0.00
   6.550   18.93  -17.79   -0.29   0.000   0.200   0.000    0.00
   6.600   18.92  -16.74    0.31   0.000   0.200   0.000    0.00
   6.650   18.37  -12.55    0.19   0.000   0.200   0.000    0.00
   6.700   17.81   -9.32   -0.60   0.000   0.200   0.000    0.00
   6.750   18.48   -9.43   -1.39   0.000   0.200   0.000    0.00
   6.800   19.17   -7.59   -0.38   0.000   0.200   0.000    0.00
   6.850   20.04   -6.37   -0.82   0.000   0.200   0.000    0.00
   6.900   19.11   -6.90   -1.25   0.000   0.200   0.000    0.00
   6.950   18.98   -7.66   -1.29   0.000   0.200   0.000    0.00
   7.000   18.60   -9.19   -0.43   0.000   0.200   0.000    0.00
   7.050   18.33   -9.41   -0.66   0.000   0.200   0.000    0.00
   7.100   18.88   -8.49   -1.05   0.000   0.200   0.000    0.00
   7.150   18.66   -9.69   -0.53   0.000   0.200   0.000    0.00
   7.200   18.44   -7.53   -0.19   0.000   0.200   0.000    0.00
   7.250   18.55   -7.54   -0.48   0.000   0.200   0.000    0.00
   7.300   17.50   -5.34   -0.75   0.000   0.200   0.000    0.00
   7.350   17.08   -4.30   -1.04   0.000   0.200   0.000    0.00
   7.400   17.44   -4.26   -0.75   0.000   0.200   0.000    0.00
   7.450   18.26   -2.17   -0.59   0.000   0.200   0.000    0.00
   7.500   18.21   -5.59   -0.69   0.000   0.200   0.000    0.00
   7.550   18.20   -8.37   -1.15   0.000   0.200   0.000    0.00
   7.600   17.81   -7.25   -1.24   0.000   0.200   0.000    0.00
   7.650   17.54   -6.12   -0.30   0.000   0.200   0.000    0.00
   7.700   18.47   -9.20   -0.10   0.000   0.200   0.000    0.00
   7.750   18.08   -6.06    0.09   0.000   0.200   0.000    0.00
   7.800   17.91   -4.42    0.10   0.000   0.200   0.000    0.00
   7.850   18.13   -4.84    0.16   0.000   0.200   0.000    0.00
   7.900   18.11   -2.38   -0.02   0.000   0.200   0.000    0.00
   7.950   18.41   -0.77    0.96   0.000   0.200   0.000    0.00
   8.000   18.34    1.01    1.23   0.000   0.200   0.000    0.00
   8.050   18.48    1.85    0.53   0.000   0.200   0.000    0.00
   8.100   18.00   -0.89    0.28   0.000   0.200   0.000    0.00
   8.150   17.80   -0.17    0.24   0.000   0.200   0.000    0.00
   8.200   18.17   -2.60    0.79   0.000   0.200   0.000    0.00
   8.250   18.55   -2.11   -0.70   0.000   0.200   0.000    0.00
   8.300   18.91    0.70   -0.93   0.000   0.200   0.000    0.00
   8.350   18.13    1.41   -0.60   0.000   0.200   0.000    0.00
   8.400   17.69    0.13   -0.55   0.000   0.200   0.000    0.00
   8.450   17.53   -1.49   -0.13   0.000   0.200   0.000    0.00
   8.500   17.64   -0.63    0.05   0.000   0.200   0.000    0.00
   8.550   17.53   -4.70    0.08   0.000   0.200   0.000    0.00
   8.600   18.57   -1.25    0.86   0.000   0.200   0.000    0.00
   8.650   19.69   -0.98    1.63   0.000   0.200   0.000    0.00
   8.700   20.18   -5.31    0.87   0.000   0.200   0.000    0.00
   8.750   20.85   -5.35    0.47   0.000   0.200   0.000    0.00
   8.800   20.90   -4.86    0.57   0.000   0.200   0.000    0.00
   8.850   20.76   -4.50    1.25   0.000   0.200   0.000    0.00
   8.900   20.40   -5.75    2.26   0.000   0.200   0.000    0.00
   8.950   19.90   -3.77    1.61   0.000   0.200   0.000    0.00
   9.000   20.06   -4.64    1.64   0.000   0.200   0.000    0.00
   9.050   19.80   -4.83    1.98   0.000   0.200   0.000    0.00
   9.100   19.71   -5.16    1.59   0.000   0.200   0.000    0.00
   9.150   20.44   -4.20    1.91   0.000   0.200   0.000    0.00
   9.200   20.12   -3.43    1.79   0.000   0.200   0.000    0.00
   9.250   19.78   -5.19    1.65   0.000   0.200   0.000    0.00
   9.300   20.19   -3.71    1.36   0.000   0.200   0.000    0.00
   9.350   19.88   -4.36    1.34   0.000   0.200   0.000    0.00
   9.400   19.79   -1.72    0.93   0.000   0.200   0.000    0.00
   9.450   19.92   -0.55    0.02   0.000   0.200   0.000    0.00
   9.500   19.87    1.09   -0.11   0.000   0.200   0.000    0.00
   9.550   20.02    1.88   -0.26   0.000   0.200   0.000    0.00
   9.600   19.51    1.17   -0.49   0.000   0.200   0.000    0.00
   9.650   19.47    0.30   -0.73   0.000   0.200   0.000    0.00
   9.700   20.03    1.11   -0.59   0.000   0.200   0.000    0.00
   9.750   19.89   -0.81    0.00   0.000   0.200   0.000    0.00
   9.800   19.83    0.99    0.39   0.000   0.200   0.000    0.00
   9.850   20.66    0.82   -0.24   0.000   0.200   0.000    0.00
   9.900   19.80   -0.08   -0.60   0.000   0.200   0.000    0.00
   9.950   19.48    0.23   -0.38   0.000   0.200   0.000    0.00
  10.000   19.06    2.10   -1.29   0.000   0.200   0.000    0.00
  10.050   19.40    1.26   -1.32   0.000   0.200   0.000    0.00
  10.100   19.89   -0.74   -1.28   0.000   0.200   0.000    0.00
  10.150   20.25   -1.27   -1.85   0.000   0.200   0.000    0.00
  10.200   19.62   -3.55   -1.16   0.000   0.200   0.000    0.00
  10.250   19.28   -4.19   -0.88   0.000   0.200   0.000    0.00
  10.300   19.08   -4.56   -1.06   0.000   0.200   0.000    0.00
  10.350   19.08   -4.70   -0.73   0.000   0.200   0.000    0.00
  10.400   18.79   -1.79   -0.95   0.000   0.200   0.000    0.00
  10.450   18.66   -0.03   -0.73   0.000   0.200   0.000    0.00
  10.500   18.90    0.09   -1.13   0.000   0.200   0.000    0.00
  10.550   18.64   -1.34   -0.57   0.000   0.200   0.000    0.00
  10.600   18.01    0.47   -1.09   0.000   0.200   0.000    0.00
  10.650   17.14    0.84   -0.66   0.000   0.200   0.000    0.00
  10.700   16.98   -1.63   -0.74   0.000   0.200   0.000    0.00
  10.750   17.07   -1.82   -0.81   0.000   0.200   0.000    0.00
  10.800   16.99   -5.06   -0.76   0.000   0.200   0.000    0.00
  10.850   16.84   -2.25   -0.66   0.000   0.200   0.000    0.00
  10.900   16.64   -0.07   -0.75   0.000   0.200   0.000    0.00
  10.950   16.49   -2.06   -1.24   0.000   0.200   0.000    0.00
  11.000   16.71   -5.87   -0.82   0.000   0.200   0.000    0.00
  11.050   16.68   -3.96   -0.96   0.000   0.200   0.000    0.00
  11.100   15.72   -5.89    0.00   0.000   0.200   0.000    0.00
  11.150   15.81   -8.73    0.12   0.000   0.200   0.000    0.00
  11.200   15.74   -7.30   -1.43   0.000   0.200   0.000    0.00
  11.250   15.71   -6.23   -0.55   0.000   0.200   0.000    0.00
  11.300   15.96   -4.58    0.38   0.000   0.200   0.000    0.00
  11.350   16.52   -3.97   -0.21   0.000   0.200   0.000    0.00
  11.400   16.61   -1.24    0.25   0.000   0.200   0.000    0.00
  11.450   15.42   -3.25    0.11   0.000   0.200   0.000    0.00
  11.500   15.02   -2.99    0.41   0.000   0.200   0.000    0.00
  11.550   15.71   -3.45    0.51   0.000   0.200   0.000    0.00
  11.600   16.13   -5.73    0.72   0.000   0.200   0.000    0.00
  11.650   15.93   -4.54    0.59   0.000   0.200   0.000    0.00
  11.700   16.74   -3.03    0.74   0.000   0.200   0.000    0.00
  11.750   16.75   -0.57    0.35   0.000   0.200   0.000    0.00
  11.800   16.32   -1.44   -0.44   0.000   0.200   0.000    0.00
  11.850   15.85   -0.35   -0.85   0.000   0.200   0.000    0.00
  11.900   15.68    0.45    0.09   0.000   0.200   0.000    0.00
  11.950   14.71   -0.92    0.44   0.000   0.200   0.000    0.00
  12.000   15.48    0.81   -0.65   0.000   0.200   0.000    0.00
  12.050   15.82   -0.32   -0.65   0.000   0.200   0.000    0.00
  12.100   16.00   -0.33   -0.75   0.000   0.200   0.000    0.00
  12.150   15.66   -1.09   -0.85   0.000   0.200   0.000    0.00
  12.200   15.99   -3.27   -0.54   0.000   0.200   0.000    0.00
  12.250   16.13   -0.11   -0.56   0.000   0.200   0.000    0.00
  12.300   17.46   -1.83   -0.88   0.000   0.200   0.000    0.00
  12.350   17.53   -2.94   -1.17   0.000   0.200   0.000    0.00
  12.400   17.48   -0.74   -1.15   0.000   0.200   0.000    0.00
  12.450   17.43   -0.64   -0.96   0.000   0.200   0.000    0.00
  12.500   17.54    0.47   -0.29   0.000   0.200   0.000    0.00
  12.550   17.11    0.75    0.31   0.000   0.200   0.000    0.00
  12.600   16.32   -1.79    1.40   0.000   0.200   0.000    0.00
  12.650   16.30   -4.81    1.30   0.000   0.200   0.000    0.00
  12.700   15.90   -5.61    1.14   0.000   0.200   0.000    0.00
  12.750   16.17   -4.25    0.86   0.000   0.200   0.000    0.00
  12.800   15.75   -5.24    1.63   0.000   0.200   0.000    0.00
  12.850   15.76   -4.75    1.89   0.000   0.200   0.000    0.00
  12.900   15.03   -6.82    1.79   0.000   0.200   0.000    0.00
  12.950   15.30   -8.37    1.41   0.000   0.200   0.000    0.00
  13.000   16.25   -7.35    0.84   0.000   0.200   0.000    0.00
  13.050   17.03   -7.66    0.54   0.000   0.200   0.000    0.00
  13.100   16.99   -5.54   -0.62   0.000   0.200   0.000    0.00
  13.150   16.62   -4.39   -0.03   0.000   0.200   0.000    0.00
  13.200   15.73   -3.38    0.84   0.000   0.200   0.000    0.00
  13.250   16.29   -2.84    1.81   0.000   0.200   0.000    0.00
  13.300   17.32   -3.45    1.07   0.000   0.200   0.000    0.00
  13.350   17.17   -1.97    0.88   0.000   0.200   0.000    0.00
  13.400   17.63    0.96    1.35   0.000   0.200   0.000    0.00
  13.450   17.73    0.60    1.32   0.000   0.200   0.000    0.00
  13.500   17.21   -1.16    1.57   0.000   0.200   0.000    0.00
  13.550   16.13   -1.36    0.41   0.000   0.200   0.000    0.00
  13.600   16.66   -3.91   -0.09   0.000   0.200   0.000    0.00
  13.650   16.51   -5.45    0.38   0.000   0.200   0.000    0.00
  13.700   16.03   -8.47    0.41   0.000   0.200   0.000    0.00
  13.750   16.04  -10.55    0.63   0.000   0.200   0.000    0.00
  13.800   15.79   -6.90   -0.44   0.000   0.200   0.000    0.00
  13.850   15.36   -6.89   -0.21   0.000   0.200   0.000    0.00
  13.900   15.10   -7.67   -0.05   0.000   0.200   0.000    0.00
  13.950   15.41   -8.87   -0.40   0.000   0.200   0.000    0.00
  14.000   15.77   -8.87   -0.17   0.000   0.200   0.000    0.00
  14.050   15.77   -8.91   -0.65   0.000   0.200   0.000    0.00
  14.100   15.25   -5.21   -0.78   0.000   0.200   0.000    0.00
  14.150   15.42   -3.06   -0.84   0.000   0.200   0.000    0.00
  14.200   15.43   -2.65    0.25   0.000   0.200   0.000    0.00
  14.250   15.20   -0.28   -0.07   0.000   0.200   0.000    0.00
  14.300   15.82    1.08    0.45   0.000   0.200   0.000    0.00
  14.350   16.40    0.33    0.09   0.000   0.200   0.000    0.00
  14.400   16.53   -1.11   -0.25   0.000   0.200   0.000    0.00
  14.450   16.80    2.37    0.43   0.000   0.200   0.000    0.00
  14.500   16.42    4.99    0.62   0.000   0.200   0.000    0.00
  14.550   16.69    5.27    0.14   0.000   0.200   0.000    0.00
  14.600   16.75    3.60    0.39   0.000   0.200   0.000    0.00
  14.650   16.62    4.27    0.15   0.000   0.200   0.000    0.00
  14.700   16.80    0.64    0.50   0.000   0.200   0.000    0.00
  14.750   16.74    1.05    0.37   0.000   0.200   0.000    0.00
  14.800   16.78   -1.18    0.12   0.000   0.200   0.000    0.00
  14.850   17.30   -2.07    0.11   0.000   0.200   0.000    0.00
  14.900   17.00   -3.49    0.24   0.000   0.200   0.000    0.00
  14.950   17.07   -2.51    0.47   0.000   0.200   0.000    0.00
  15.000   16.14   -3.75    0.58   0.000   0.200   0.000    0.00
  15.050   16.34   -0.37   -0.19   0.000   0.200   0.000    0.00
  15.100   16.54   -2.21   -0.63   0.000   0.200   0.000    0.00
  15.150   16.73   -3.14   -1.35   0.000   0.200   0.000    0.00
  15.200   16.63   -1.83   -1.41   0.000   0.200   0.000    0.00
  15.250   16.35   -2.73   -1.16   0.000   0.200   0.000    0.00
  15.300   16.21   -0.68   -0.65   0.000   0.200   0.000    0.00
  15.350   15.35   -3.26   -0.87   0.000   0.200   0.000    0.00
  15.400   15.98   -4.82   -0.90   0.000   0.200   0.000    0.00
  15.450   16.41   -2.57   -0.52   0.000   0.200   0.000    0.00
  15.500   15.91   -1.40    0.24   0.000   0.200   0.000    0.00
  15.550   15.90   -4.65   -0.11   0.000   0.200   0.000    0.00
  15.600   15.93   -2.03   -0.39   0.000   0.200   0.000    0.00
  15.650   16.55   -3.24   -0.49   0.000   0.200   0.000    0.00
  15.700   16.64    0.03   -0.50   0.000   0.200   0.000    0.00
  15.750   16.83    1.63   -0.69   0.000   0.200   0.000    0.00
  15.800   16.54    2.12   -0.78   0.000   0.200   0.000    0.00
  15.850   15.97    4.17   -1.21   0.000   0.200   0.000    0.00
  15.900   16.09    3.73   -1.12   0.000   0.200   0.000    0.00
  15.950   16.68    6.37   -0.78   0.000   0.200   0.000    0.00
  16.000   16.91    6.82   -0.76   0.000   0.200   0.000    0.00
  16.050   16.68    5.05   -0.68   0.000   0.200   0.000    0.00
  16.100   16.34    5.87   -0.58   0.000   0.200   0.000    0.00
  16.150   16.75    3.57    0.36   0.000   0.200   0.000    0.00
  16.200   17.29    0.24    0.03   0.000   0.200   0.000    0.00
  16.250   17.80    1.20   -0.87   0.000   0.200   0.000    0.00
  16.300   17.54   -0.06   -0.83   0.000   0.200   0.000    0.00
  16.350   17.98   -1.24   -1.23   0.000   0.200   0.000    0.00
  16.400   17.97   -4.05   -1.56   0.000   0.200   0.000    0.00
  16.450   18.43   -5.15   -0.99   0.000   0.200   0.000    0.00
  16.500   18.48   -4.55   -0.82   0.000   0.200   0.000    0.00
  16.550   18.90   -2.21   -0.94   0.000   0.200   0.000    0.00
  16.600   19.33   -3.78   -1.07   0.000   0.200   0.000    0.00
  16.650   18.96   -3.43   -1.28   0.000   0.200   0.000    0.00
  16.700   18.64   -2.58   -1.99   0.000   0.200   0.000    0.00
  16.750   18.29   -2.40   -2.12   0.000   0.200   0.000    0.00
  16.800   17.57   -2.92   -1.47   0.000   0.200   0.000    0.00
  16.850   17.64   -2.35   -2.32   0.000   0.200   0.000    0.00
  16.900   17.91   -3.85   -2.51   0.000   0.200   0.000    0.00
  16.950   18.13   -2.76   -1.82   0.000   0.200   0.000    0.00
  17.000   18.82    0.19   -2.16   0.000   0.200   0.000    0.00
  17.050   18.39    0.12   -2.68   0.000   0.200   0.000    0.00
  17.100   18.17    0.60   -2.18   0.000   0.200   0.000    0.00
  17.150   18.54    2.54   -1.36   0.000   0.200   0.000    0.00
  17.200   18.75    1.08   -1.25   0.000   0.200   0.000    0.00
  17.250   18.42   -1.58   -1.09   0.000   0.200   0.000    0.00
  17.300   17.68   -1.07   -0.44   0.000   0.200   0.000    0.00
  17.350   17.16    0.16    0.11   0.000   0.200   0.000    0.00
  17.400   17.10    1.55    0.79   0.000   0.200   0.000    0.00
  17.450   17.59    1.09    1.03   0.000   0.200   0.000    0.00
  17.500   17.46    2.78    0.40   0.000   0.200   0.000    0.00
  17.550   17.83    2.52    0.11   0.000   0.200   0.000    0.00
  17.600   18.07    5.50    0.16   0.000   0.200   0.000    0.00
  17.650   17.68    9.11   -0.04   0.000   0.200   0.000    0.00
  17.700   17.66   10.00   -0.46   0.000   0.200   0.000    0.00
  17.750   17.68    9.94   -0.54   0.000   0.200   0.000    0.00
  17.800   17.79    8.05   -0.60   0.000   0.200   0.000    0.00
  17.850   17.47    6.36    0.10   0.000   0.200   0.000    0.00
  17.900   17.68    4.80    0.92   0.000   0.200   0.000    0.00
  17.950   16.95    5.19    0.50   0.000   0.200   0.000    0.00
  18.000   17.14    8.77    0.58   0.000   0.200   0.000    0.00
  18.050   17.16    9.67    0.70   0.000   0.200   0.000    0.00
  18.100   16.59    9.72    0.72   0.000   0.200   0.000    0.00
  18.150   17.61   11.18    0.41   0.000   0.200   0.000    0.00
  18.200   17.50    9.75    0.08   0.000   0.200   0.000    0.00
  18.250   18.00    7.82   -0.57   0.000   0.200   0.000    0.00
  18.300   18.77    9.39    0.00   0.000   0.200   0.000    0.00
  18.350   17.97   10.70   -0.34   0.000   0.200   0.000    0.00
  18.400   17.87    8.08   -0.94   0.000   0.200   0.000    0.00
  18.450   17.50    4.94   -1.11   0.000   0.200   0.000    0.00
  18.500   17.38    7.84   -0.45   0.000   0.200   0.000    0.00
  18.550   17.61    6.59   -0.53   0.000   0.200   0.000    0.00
  18.600   17.80    7.25   -1.00   0.000   0.200   0.000    0.00
  18.650   17.90    7.15   -0.30   0.000   0.200   0.000    0.00
  18.700   17.56    5.11    0.55   0.000   0.200   0.000    0.00
  18.750   17.29    4.39    0.22   0.000   0.200   0.000    0.00
  18.800   16.85    6.00    0.14   0.000   0.200   0.000    0.00
  18.850   16.99    3.21    1.20   0.000   0.200   0.000    0.00
  18.900   17.72    4.69    1.13   0.000   0.200   0.000    0.00
  18.950   17.84    7.79    0.71   0.000   0.200   0.000    0.00
  19.000   17.88    6.51    0.78   0.000   0.200   0.000    0.00
  19.050   17.81    7.04    0.82   0.000   0.200   0.000    0.00
  19.100   17.54    7.89    1.67   0.000   0.200   0.000    0.00
  19.150   18.01    4.68    1.08   0.000   0.200   0.000    0.00
  19.200   18.34    5.80    0.64   0.000   0.200   0.000    0.00
  19.250   18.58    4.36    0.36   0.000   0.200   0.000    0.00
  19.300   18.44    4.54    0.30   0.000   0.200   0.000    0.00
  19.350   17.84    3.21    0.04   0.000   0.200   0.000    0.00
  19.400   17.87   -1.52   -0.36   0.000   0.200   0.000    0.00
  19.450   17.36    0.81   -0.76   0.000   0.200   0.000    0.00
  19.500   16.72    1.16   -1.23   0.000   0.200   0.000    0.00
  19.550   17.21   -1.08   -1.34   0.000   0.200   0.000    0.00
  19.600   17.31   -0.96   -0.79   0.000   0.200   0.000    0.00
  19.650   17.99   -2.15   -0.93   0.000   0.200   0.000    0.00
  19.700   17.51   -1.32   -0.70   0.000   0.200   0.000    0.00
  19.750   16.86    0.82    0.43   0.000   0.200   0.000    0.00
  19.800   16.50   -0.86    0.70   0.000   0.200   0.000    0.00
  19.850   16.62   -0.30    0.63   0.000   0.200   0.000    0.00
  19.900   16.41    0.31    0.58   0.000   0.200   0.000    0.00
  19.950   16.68    1.35    1.00   0.000   0.200   0.000    0.00
  20.000   16.47    1.30    0.03   0.000   0.200   0.000    0.00
  20.050   16.99   -1.32    0.50   0.000   0.200   0.000    0.00
  20.100   16.86   -1.98    1.44   0.000   0.200   0.000    0.00
  20.150   16.72   -0.68    1.46   0.000   0.200   0.000    0.00
  20.200   16.42    3.08    2.71   0.000   0.200   0.000    0.00
  20.250   16.53    2.09    3.03   0.000   0.200   0.000    0.00
  20.300   16.58   -0.58    2.03   0.000   0.200   0.000    0.00
  20.350   16.67    2.72    1.56   0.000   0.200   0.000    0.00
  20.400   16.47    2.50    1.27   0.000   0.200   0.000    0.00
  20.450   15.53    3.77    1.91   0.000   0.200   0.000    0.00
  20.500   15.22    3.52    1.82   0.000   0.200   0.000    0.00
  20.550   15.08    0.00    1.94   0.000   0.200   0.000    0.00
  20.600   14.42   -2.41    1.44   0.000   0.200   0.000    0.00
  20.650   14.28   -2.00    1.68   0.000   0.200   0.000    0.00
  20.700   14.87   -2.72    1.68   0.000   0.200   0.000    0.00
  20.750   14.91   -4.27    1.78   0.000   0.200   0.000    0.00
  20.800   15.35   -4.02    1.52   0.000   0.200   0.000    0.00
  20.850   15.69   -4.43    0.83   0.000   0.200   0.000    0.00
  20.900   15.54   -7.58    0.58   0.000   0.200   0.000    0.00
  20.950   16.04   -6.87    0.72   0.000   0.200   0.000    0.00
  21.000   16.53   -4.16    1.49   0.000   0.200   0.000    0.00
  21.050   17.58   -3.89    1.36   0.000   0.200   0.000    0.00
  21.100   16.72   -3.57    0.40   0.000   0.200   0.000    0.00
  21.150   16.32   -1.05    0.32   0.000   0.200   0.000    0.00
  21.200   16.36   -0.30    0.61   0.000   0.200   0.000    0.00
  21.250   16.61   -1.09    0.51   0.000   0.200   0.000    0.00
  21.300   17.17   -2.72    0.34   0.000   0.200   0.000    0.00
  21.350   17.22   -3.13   -0.19   0.000   0.200   0.000    0.00
  21.400   17.09    0.69   -0.54   0.000   0.200   0.000    0.00
  21.450   17.35   -2.51   -1.59   0.000   0.200   0.000    0.00
  21.500   17.25   -3.04   -0.56   0.000   0.200   0.000    0.00
  21.550   17.22   -1.17   -0.95   0.000   0.200   0.000    0.00
  21.600   17.22    0.01   -0.62   0.000   0.200   0.000    0.00
  21.650   16.95   -1.10   -0.91   0.000   0.200   0.000    0.00
  21.700   16.40   -3.12   -0.55   0.000   0.200   0.000    0.00
  21.750   16.08   -5.17    0.07   0.000   0.200   0.000    0.00
  21.800   15.98   -6.59    0.43   0.000   0.200   0.000    0.00
  21.850   15.73   -5.02    0.30   0.000   0.200   0.000    0.00
  21.900   15.32   -4.09    0.31   0.000   0.200   0.000    0.00
  21.950   16.06   -2.98   -0.31   0.000   0.200   0.000    0.00
  22.000   16.03   -0.75    0.82   0.000   0.200   0.000    0.00
  22.050   16.31    1.38    0.39   0.000   0.200   0.000    0.00
  22.100   16.93    1.29    0.78   0.000   0.200   0.000    0.00
  22.150   17.18    1.10    0.24   0.000   0.200   0.000    0.00
  22.200   17.55   -0.56    0.20   0.000   0.200   0.000    0.00
  22.250   17.18    0.25    0.30   0.000   0.200   0.000    0.00
  22.300   16.86    0.91   -0.27   0.000   0.200   0.000    0.00
  22.350   16.75    0.56   -0.24   0.000   0.200   0.000    0.00