! This hub-height wind-speed file was generated by TurbSim (v1.06.00, 21-Sep-2012) on 16-Jun-2018 at 18:34:13.
!
! The requested statistics for this data were:
!    Mean Total Wind Speed =    9.000 m/s
!    Turbulence Intensity  =   19.211%
!
!   Time  HorSpd  WndDir  VerSpd  HorShr  VerShr  LnVShr  GstSpd
!  (sec)   (m/s)   (deg)   (m/s)     (-)     (-)     (-)   (m/s)
   0.000    7.85    5.36   -1.25   0.000   0.200   0.000    0.00
   0.050    7.64    2.42   -1.44   0.000   0.200   0.000    0.00
   0.100    8.04    4.53   -1.24   0.000   0.200   0.000    0.00
   0.150    8.13    3.28   -0.91   0.000   0.200   0.000    0.00
   0.200    8.35    3.73   -0.97   0.000   0.200   0.000    0.00
   0.250    8.25    5.20   -1.43   0.000   0.200   0.000    0.00
   0.300    7.62    7.85   -1.18   0.000   0.200   0.000    0.00
   0.350    7.40    4.95   -1.01   0.000   0.200   0.000    0.00
   0.400    7.22    8.25   -0.50   0.000   0.200   0.000    0.00
   0.450    7.20   10.79   -0.21   0.000   0.200   0.000    0.00
   0.500    7.29    8.94   -0.27   0.000   0.200   0.000    0.00
   0.550    7.51    7.64   -0.42   0.000   0.200   0.000    0.00
   0.600    7.54    5.63   -0.61   0.000   0.200   0.000    0.00
   0.650    7.39    4.83   -0.40   0.000   0.200   0.000    0.00
   0.700    7.45    4.75   -0.65   0.000   0.200   0.000    0.00
   0.750    7.29    5.95   -0.78   0.000   0.200   0.000    0.00
   0.800    6.96    7.29   -0.54   0.000   0.200   0.000    0.00
   0.850    6.48    8.91   -0.75   0.000   0.200   0.000    0.00
   0.900    6.88    8.84   -1.15   0.000   0.200   0.000    0.00
   0.950    7.05   12.47   -0.71   0.000   0.200   0.000    0.00
   1.000    6.90    9.80   -0.88   0.000   0.200   0.000    0.00
   1.050    6.67    8.03   -0.97   0.000   0.200   0.000    0.00
   1.100    7.25    3.34   -1.27   0.000   0.200   0.000    0.00
   1.150    7.04    1.82   -1.63   0.000   0.200   0.000    0.00
   1.200    7.07    2.34   -1.43   0.000   0.200   0.000    0.00
   1.250    7.31    2.20   -1.34   0.000   0.200   0.000    0.00
   1.300    7.73    4.21   -1.51   0.000   0.200   0.000    0.00
   1.350    8.07    4.59   -1.61   0.000   0.200   0.000    0.00
   1.400    8.16    5.59   -1.64   0.000   0.200   0.000    0.00
   1.450    7.54    3.44   -1.73   0.000   0.200   0.000    0.00
   1.500    7.77    0.91   -1.43   0.000   0.200   0.000    0.00
   1.550    7.46    3.57   -0.93   0.000   0.200   0.000    0.00
   1.600    7.54    6.55   -0.45   0.000   0.200   0.000    0.00
   1.650    7.32    0.05   -0.33   0.000   0.200   0.000    0.00
   1.700    6.95    1.08   -0.24   0.000   0.200   0.000    0.00
   1.750    6.76   -1.84    0.24   0.000   0.200   0.000    0.00
   1.800    6.55   -3.94    0.14   0.000   0.200   0.000    0.00
   1.850    6.41    0.36    0.75   0.000   0.200   0.000    0.00
   1.900    6.21   -5.07    0.27   0.000   0.200   0.000    0.00
   1.950    6.53   -6.52   -0.18   0.000   0.200   0.000    0.00
   2.000    6.51   -6.96   -0.22   0.000   0.200   0.000    0.00
   2.050    6.36   -4.31   -0.54   0.000   0.200   0.000    0.00
   2.100    6.50   -0.49   -0.61   0.000   0.200   0.000    0.00
   2.150    6.30    4.05   -0.64   0.000   0.200   0.000    0.00
   2.200    6.65    1.48   -0.49   0.000   0.200   0.000    0.00
   2.250    6.90   -2.35   -0.09   0.000   0.200   0.000    0.00
   2.300    6.82   -4.89    0.07   0.000   0.200   0.000    0.00
   2.350    7.32   -6.69   -0.07   0.000   0.200   0.000    0.00
   2.400    7.24   -9.69   -0.67   0.000   0.200   0.000    0.00
   2.450    7.01  -12.86   -0.55   0.000   0.200   0.000    0.00
   2.500    6.87   -6.63   -0.08   0.000   0.200   0.000    0.00
   2.550    6.77   -8.17   -0.26   0.000   0.200   0.000    0.00
   2.600    6.57   -5.70    0.09   0.000   0.200   0.000    0.00
   2.650    6.92   -4.45   -0.32   0.000   0.200   0.000    0.00
   2.700    6.72   -8.96   -0.08   0.000   0.200   0.000    0.00
   2.750    6.94  -11.97    0.25   0.000   0.200   0.000    0.00
   2.800    7.39  -14.04    0.36   0.000   0.200   0.000    0.00
   2.850    7.22  -17.76    0.24   0.000   0.200   0.000    0.00
   2.900    7.42  -19.81    0.08   0.000   0.200   0.000    0.00
   2.950    6.96  -17.49    0.30   0.000   0.200   0.000    0.00
   3.000    7.02  -14.24    0.13   0.000   0.200   0.000    0.00
   3.050    7.15  -16.42    0.06   0.000   0.200   0.000    0.00
   3.100    6.74  -15.41    0.02   0.000   0.200   0.000    0.00
   3.150    6.55  -12.41    0.01   0.000   0.200   0.000    0.00
   3.200    6.66  -10.60   -0.15   0.000   0.200   0.000    0.00
   3.250    7.01  -16.43   -0.02   0.000   0.200   0.000    0.00
   3.300    7.17  -20.86    0.33   0.000   0.200   0.000    0.00
   3.350    6.66  -20.97    0.76   0.000   0.200   0.000    0.00
   3.400    6.92  -23.10    0.61   0.000   0.200   0.000    0.00
   3.450    7.59  -24.81    0.64   0.000   0.200   0.000    0.00
   3.500    7.18  -22.34    0.95   0.000   0.200   0.000    0.00
   3.550    6.89  -19.53    0.76   0.000   0.200   0.000    0.00
   3.600    7.13  -20.59    1.03   0.000   0.200   0.000    0.00
   3.650    7.09  -20.32    1.01   0.000   0.200   0.000    0.00
   3.700    6.51  -17.65    0.66   0.000   0.200   0.000    0.00
   3.750    6.73  -18.80    0.97   0.000   0.200   0.000    0.00
   3.800    6.05  -12.20    0.97   0.000   0.200   0.000    0.00
   3.850    6.55  -12.95    0.92   0.000   0.200   0.000    0.00
   3.900    6.64  -14.22    1.21   0.000   0.200   0.000    0.00
   3.950    7.09  -11.81    0.85   0.000   0.200   0.000    0.00
   4.000    7.10  -11.23    1.03   0.000   0.200   0.000    0.00
   4.050    6.78   -8.15    1.03   0.000   0.200   0.000    0.00
   4.100    6.89   -8.47    0.86   0.000   0.200   0.000    0.00
   4.150    6.83   -9.98    0.86   0.000   0.200   0.000    0.00
   4.200    6.63  -11.43    0.65   0.000   0.200   0.000    0.00
   4.250    6.90   -4.81    0.86   0.000   0.200   0.000    0.00
   4.300    7.21   -7.27    0.38   0.000   0.200   0.000    0.00
   4.350    7.25   -9.23    0.33   0.000   0.200   0.000    0.00
   4.400    7.07  -11.10    0.51   0.000   0.200   0.000    0.00
   4.450    7.08  -13.90    0.75   0.000   0.200   0.000    0.00
   4.500    7.02  -12.08    0.95   0.000   0.200   0.000    0.00
   4.550    7.21  -13.85    1.17   0.000   0.200   0.000    0.00
   4.600    6.98  -14.30    0.98   0.000   0.200   0.000    0.00
   4.650    6.96  -14.68    1.11   0.000   0.200   0.000    0.00
   4.700    7.08  -17.09    1.01   0.000   0.200   0.000    0.00
   4.750    6.66  -17.12    0.52   0.000   0.200   0.000    0.00
   4.800    6.54  -15.11    0.95   0.000   0.200   0.000    0.00
   4.850    6.47  -16.97    1.13   0.000   0.200   0.000    0.00
   4.900    6.19  -16.22    1.24   0.000   0.200   0.000    0.00
   4.950    6.54  -15.42    1.40   0.000   0.200   0.000    0.00
   5.000    6.96  -17.22    0.96   0.000   0.200   0.000    0.00
   5.050    7.44  -18.08    1.12   0.000   0.200   0.000    0.00
   5.100    7.70  -16.82    0.98   0.000   0.200   0.000    0.00
   5.150    7.73  -15.00    1.09   0.000   0.200   0.000    0.00
   5.200    7.61  -10.79    1.12   0.000   0.200   0.000    0.00
   5.250    7.72   -7.45    0.76   0.000   0.200   0.000    0.00
   5.300    8.39   -5.33    0.61   0.000   0.200   0.000    0.00
   5.350    8.61   -6.32    0.25   0.000   0.200   0.000    0.00
   5.400    8.60   -6.87    0.70   0.000   0.200   0.000    0.00
   5.450    8.68   -9.46    0.92   0.000   0.200   0.000    0.00
   5.500    8.96  -10.50    0.97   0.000   0.200   0.000    0.00
   5.550    8.70   -8.09    0.60   0.000   0.200   0.000    0.00
   5.600    8.54   -6.15    0.87   0.000   0.200   0.000    0.00
   5.650    8.23   -6.09    0.51   0.000   0.200   0.000    0.00
   5.700    8.67  -11.22    0.84   0.000   0.200   0.000    0.00
   5.750    8.48  -11.05    0.95   0.000   0.200   0.000    0.00
   5.800    7.80   -8.60    0.69   0.000   0.200   0.000    0.00
   5.850    7.55   -7.74    0.75   0.000   0.200   0.000    0.00
   5.900    7.23   -6.47    0.40   0.000   0.200   0.000    0.00
   5.950    7.34   -7.05    0.59   0.000   0.200   0.000    0.00
   6.000    7.72   -6.60    0.61   0.000   0.200   0.000    0.00
   6.050    7.52   -3.84    0.58   0.000   0.200   0.000    0.00
   6.100    7.98   -4.61    0.68   0.000   0.200   0.000    0.00
   6.150    7.96   -7.11    0.62   0.000   0.200   0.000    0.00
   6.200    8.04   -5.76    0.46   0.000   0.200   0.000    0.00
   6.250    8.45   -5.97    0.51   0.000   0.200   0.000    0.00
   6.300    8.37   -6.77    0.40   0.000   0.200   0.000    0.00
   6.350    8.81   -6.31    0.80   0.000   0.200   0.000    0.00
   6.400    9.03   -7.08    0.99   0.000   0.200   0.000    0.00
   6.450    8.80   -6.38    1.02   0.000   0.200   0.000    0.00
   6.500    8.37   -6.52    1.17   0.000   0.200   0.000    0.00
   6.550    8.42   -7.36    0.93   0.000   0.200   0.000    0.00
   6.600    8.46   -7.55    0.76   0.000   0.200   0.000    0.00
   6.650    8.36   -8.23    0.61   0.000   0.200   0.000    0.00
   6.700    8.59   -9.35    0.38   0.000   0.200   0.000    0.00
   6.750    8.79   -8.58    0.23   0.000   0.200   0.000    0.00
   6.800    8.73   -8.41   -0.25   0.000   0.200   0.000    0.00
   6.850    8.69   -6.28    0.16   0.000   0.200   0.000    0.00
   6.900    8.57   -7.21    0.14   0.000   0.200   0.000    0.00
   6.950    8.09   -7.55   -0.18   0.000   0.200   0.000    0.00
   7.000    7.97   -9.87   -0.21   0.000   0.200   0.000    0.00
   7.050    8.02   -6.79   -0.10   0.000   0.200   0.000    0.00
   7.100    8.19   -7.71   -0.26   0.000   0.200   0.000    0.00
   7.150    8.13   -7.91   -0.44   0.000   0.200   0.000    0.00
   7.200    8.34   -6.46   -0.57   0.000   0.200   0.000    0.00
   7.250    8.29   -9.95   -0.67   0.000   0.200   0.000    0.00
   7.300    8.57  -11.10   -0.63   0.000   0.200   0.000    0.00
   7.350    8.34  -10.74   -0.62   0.000   0.200   0.000    0.00
   7.400    8.33  -11.76   -0.71   0.000   0.200   0.000    0.00
   7.450    8.27  -11.88   -0.56   0.000   0.200   0.000    0.00
   7.500    8.12  -14.68    0.04   0.000   0.200   0.000    0.00
   7.550    8.14  -12.43    0.49   0.000   0.200   0.000    0.00
   7.600    7.81  -10.74    0.66   0.000   0.200   0.000    0.00
   7.650    8.02   -9.71    0.55   0.000   0.200   0.000    0.00
   7.700    7.54  -11.02    0.49   0.000   0.200   0.000    0.00
   7.750    7.78  -13.02    0.51   0.000   0.200   0.000    0.00
   7.800    7.87  -12.20    0.69   0.000   0.200   0.000    0.00
   7.850    8.06  -10.75    0.42   0.000   0.200   0.000    0.00
   7.900    8.33  -10.62    0.06   0.000   0.200   0.000    0.00
   7.950    8.47  -10.61   -0.16   0.000   0.200   0.000    0.00
   8.000    8.42  -11.66    0.03   0.000   0.200   0.000    0.00
   8.050    8.30  -13.94    0.15   0.000   0.200   0.000    0.00
   8.100    8.19  -14.59   -0.29   0.000   0.200   0.000    0.00
   8.150    8.10  -14.35    0.04   0.000   0.200   0.000    0.00
   8.200    7.88  -13.87   -0.08   0.000   0.200   0.000    0.00
   8.250    8.05  -15.96   -0.45   0.000   0.200   0.000    0.00
   8.300    8.27  -15.79   -0.37   0.000   0.200   0.000    0.00
   8.350    8.25  -18.60    0.16   0.000   0.200   0.000    0.00
   8.400    8.46  -20.60    0.13   0.000   0.200   0.000    0.00
   8.450    8.72  -18.49   -0.16   0.000   0.200   0.000    0.00
   8.500    8.52  -18.18    0.30   0.000   0.200   0.000    0.00
   8.550    8.27  -18.94    0.29   0.000   0.200   0.000    0.00
   8.600    8.10  -17.55    0.41   0.000   0.200   0.000    0.00
   8.650    8.24  -16.24    0.21   0.000   0.200   0.000    0.00
   8.700    8.13  -15.86   -0.10   0.000   0.200   0.000    0.00
   8.750    8.24  -15.35   -0.07   0.000   0.200   0.000    0.00
   8.800    7.98  -15.86    0.62   0.000   0.200   0.000    0.00
   8.850    8.05  -18.07    0.59   0.000   0.200   0.000    0.00
   8.900    8.25  -16.32    1.18   0.000   0.200   0.000    0.00
   8.950    8.17  -15.13    0.91   0.000   0.200   0.000    0.00
   9.000    8.07  -13.13    0.88   0.000   0.200   0.000    0.00
   9.050    7.90  -14.56    0.89   0.000   0.200   0.000    0.00
   9.100    8.02  -12.61    0.75   0.000   0.200   0.000    0.00
   9.150    8.18  -11.25    0.88   0.000   0.200   0.000    0.00
   9.200    8.03  -13.74    1.62   0.000   0.200   0.000    0.00
   9.250    7.76  -16.32    1.42   0.000   0.200   0.000    0.00
   9.300    8.32  -14.18    1.39   0.000   0.200   0.000    0.00
   9.350    8.30  -14.39    1.79   0.000   0.200   0.000    0.00
   9.400    8.21  -15.64    2.11   0.000   0.200   0.000    0.00
   9.450    8.43  -15.78    2.02   0.000   0.200   0.000    0.00
   9.500    8.09  -15.58    2.04   0.000   0.200   0.000    0.00
   9.550    8.14  -14.56    1.48   0.000   0.200   0.000    0.00
   9.600    8.26  -13.68    1.01   0.000   0.200   0.000    0.00
   9.650    8.05  -12.05    1.05   0.000   0.200   0.000    0.00
   9.700    8.22  -10.86    0.90   0.000   0.200   0.000    0.00
   9.750    7.89   -8.55    1.07   0.000   0.200   0.000    0.00
   9.800    7.35  -12.49    1.19   0.000   0.200   0.000    0.00
   9.850    7.16   -8.61    1.41   0.000   0.200   0.000    0.00
   9.900    7.67   -6.13    1.37   0.000   0.200   0.000    0.00
   9.950    7.92   -7.70    1.13   0.000   0.200   0.000    0.00
  10.000    8.06   -9.72    1.62   0.000   0.200   0.000    0.00
  10.050    8.16   -9.38    1.52   0.000   0.200   0.000    0.00
  10.100    7.93  -12.06    0.91   0.000   0.200   0.000    0.00
  10.150    7.81   -8.41    1.14   0.000   0.200   0.000    0.00
  10.200    8.28   -7.52    1.25   0.000   0.200   0.000    0.00
  10.250    8.49   -8.37    0.71   0.000   0.200   0.000    0.00
  10.300    8.24  -10.82    0.53   0.000   0.200   0.000    0.00
  10.350    8.72   -9.57    0.19   0.000   0.200   0.000    0.00
  10.400    8.80   -8.47   -0.02   0.000   0.200   0.000    0.00
  10.450    8.25  -10.98    0.21   0.000   0.200   0.000    0.00
  10.500    7.54  -11.47   -0.02   0.000   0.200   0.000    0.00
  10.550    7.76  -10.40   -0.52   0.000   0.200   0.000    0.00
  10.600    7.45   -9.30   -1.03   0.000   0.200   0.000    0.00
  10.650    7.61   -7.00   -0.90   0.000   0.200   0.000    0.00
  10.700    7.87   -7.70   -1.01   0.000   0.200   0.000    0.00
  10.750    7.89  -11.60   -1.49   0.000   0.200   0.000    0.00
  10.800    7.95  -11.09   -1.15   0.000   0.200   0.000    0.00
  10.850    8.22  -10.03   -1.15   0.000   0.200   0.000    0.00
  10.900    8.58   -6.25   -1.23   0.000   0.200   0.000    0.00
  10.950    8.33   -8.19   -1.40   0.000   0.200   0.000    0.00
  11.000    8.72   -4.53   -1.11   0.000   0.200   0.000    0.00
  11.050    9.31   -2.33   -0.76   0.000   0.200   0.000    0.00
  11.100    9.06   -3.71   -0.71   0.000   0.200   0.000    0.00
  11.150    9.30   -4.30   -0.81   0.000   0.200   0.000    0.00
  11.200    9.33   -6.36   -1.15   0.000   0.200   0.000    0.00
  11.250    9.90   -5.69   -0.99   0.000   0.200   0.000    0.00
  11.300    9.96   -4.59   -1.18   0.000   0.200   0.000    0.00
  11.350   10.03   -6.44   -1.14   0.000   0.200   0.000    0.00
  11.400    9.51   -7.11   -1.16   0.000   0.200   0.000    0.00
  11.450    9.29   -5.87   -1.06   0.000   0.200   0.000    0.00
  11.500    9.52   -3.12   -1.40   0.000   0.200   0.000    0.00
  11.550    9.66   -5.34   -1.74   0.000   0.200   0.000    0.00
  11.600    9.83   -5.37   -1.42   0.000   0.200   0.000    0.00
  11.650    9.45   -5.17   -1.09   0.000   0.200   0.000    0.00
  11.700    9.80   -5.85   -0.57   0.000   0.200   0.000    0.00
  11.750    9.78   -6.62   -0.45   0.000   0.200   0.000    0.00
  11.800    9.35   -3.88   -0.23   0.000   0.200   0.000    0.00
  11.850    9.47   -6.21    0.05   0.000   0.200   0.000    0.00
  11.900    9.37   -3.51   -0.01   0.000   0.200   0.000    0.00
  11.950    9.38   -5.31   -0.60   0.000   0.200   0.000    0.00
  12.000    8.96   -5.70   -0.44   0.000   0.200   0.000    0.00
  12.050    8.60   -4.02   -0.14   0.000   0.200   0.000    0.00
  12.100    8.64   -2.56    0.13   0.000   0.200   0.000    0.00
  12.150    8.80   -2.41   -0.15   0.000   0.200   0.000    0.00
  12.200    8.61   -3.51   -0.04   0.000   0.200   0.000    0.00
  12.250    8.73   -7.10   -0.19   0.000   0.200   0.000    0.00
  12.300    8.83   -4.77   -0.05   0.000   0.200   0.000    0.00
  12.350    8.75   -2.20   -0.14   0.000   0.200   0.000    0.00
  12.400    8.76   -2.45   -0.48   0.000   0.200   0.000    0.00
  12.450    8.66    0.12   -0.24   0.000   0.200   0.000    0.00
  12.500    8.82    4.05   -0.33   0.000   0.200   0.000    0.00
  12.550    8.65    1.08   -0.52   0.000   0.200   0.000    0.00
  12.600    8.48    2.52   -0.22   0.000   0.200   0.000    0.00
  12.650    8.32    2.91   -0.08   0.000   0.200   0.000    0.00
  12.700    8.48   -0.44   -0.08   0.000   0.200   0.000    0.00
  12.750    8.68   -0.21   -0.51   0.000   0.200   0.000    0.00
  12.800    8.72   -1.68   -0.09   0.000   0.200   0.000    0.00
  12.850    8.91   -1.52    0.05   0.000   0.200   0.000    0.00
  12.900    8.78    0.36    0.13   0.000   0.200   0.000    0.00
  12.950    8.73    0.54   -0.12   0.000   0.200   0.000    0.00
  13.000    8.50    1.11   -0.07   0.000   0.200   0.000    0.00
  13.050    8.66    0.06    0.01   0.000   0.200   0.000    0.00
  13.100    8.86    1.37    0.01   0.000   0.200   0.000    0.00
  13.150    8.94   -0.29    0.14   0.000   0.200   0.000    0.00
  13.200    9.23   -1.95    0.37   0.000   0.200   0.000    0.00
  13.250    9.23   -4.77    0.17   0.000   0.200   0.000    0.00
  13.300    9.21   -5.55    0.13   0.000   0.200   0.000    0.00
  13.350    9.73   -4.25   -0.20   0.000   0.200   0.000    0.00
  13.400    9.69   -6.97    0.32   0.000   0.200   0.000    0.00
  13.450    9.46   -4.89    0.25   0.000   0.200   0.000    0.00
  13.500    9.29   -0.76    0.28   0.000   0.200   0.000    0.00
  13.550    9.53   -1.03    0.56   0.000   0.200   0.000    0.00
  13.600    9.51    1.12    0.52   0.000   0.200   0.000    0.00
  13.650    9.36    0.56    0.59   0.000   0.200   0.000    0.00
  13.700    9.65    1.60    0.89   0.000   0.200   0.000    0.00
  13.750    9.83    4.25    0.55   0.000   0.200   0.000    0.00
  13.800    9.86    4.29    0.28   0.000   0.200   0.000    0.00
  13.850    9.76    4.06    0.37   0.000   0.200   0.000    0.00
  13.900    9.39    1.26    0.34   0.000   0.200   0.000    0.00
  13.950    9.52    0.58    0.91   0.000   0.200   0.000    0.00
  14.000    9.85    2.81    0.77   0.000   0.200   0.000    0.00
  14.050    9.90    4.53    0.55   0.000   0.200   0.000    0.00
  14.100   10.03    5.24    0.74   0.000   0.200   0.000    0.00
  14.150    9.84    6.24    0.40   0.000   0.200   0.000    0.00
  14.200    9.92    8.60    0.20   0.000   0.200   0.000    0.00
  14.250   10.00   10.46    0.06   0.000   0.200   0.000    0.00
  14.300   10.31    9.04    0.24   0.000   0.200   0.000    0.00
  14.350   10.19    5.93    0.07   0.000   0.200   0.000    0.00
  14.400   10.07    5.24   -0.26   0.000   0.200   0.000    0.00
  14.450   10.14    4.84   -0.44   0.000   0.200   0.000    0.00
  14.500   10.10    5.39   -0.63   0.000   0.200   0.000    0.00
  14.550   10.15    1.85    0.04   0.000   0.200   0.000    0.00
  14.600   10.20    1.24    0.33   0.000   0.200   0.000    0.00
  14.650   10.33    4.71    0.31   0.000   0.200   0.000    0.00
  14.700   10.78    6.77    0.06   0.000   0.200   0.000    0.00
  14.750   10.46    7.08   -0.14   0.000   0.200   0.000    0.00
  14.800   10.44    5.44   -0.61   0.000   0.200   0.000    0.00
  14.850   10.49    4.09   -0.49   0.000   0.200   0.000    0.00
  14.900   10.41    8.96   -0.01   0.000   0.200   0.000    0.00
  14.950   10.38    8.81    0.03   0.000   0.200   0.000    0.00
  15.000   10.55    7.90    0.29   0.000   0.200   0.000    0.00
  15.050   10.42    6.65    0.47   0.000   0.200   0.000    0.00
  15.100   10.45    4.59    0.19   0.000   0.200   0.000    0.00
  15.150   10.31    3.27    0.33   0.000   0.200   0.000    0.00
  15.200   10.48    3.10    0.65   0.000   0.200   0.000    0.00
  15.250   10.16    3.01   -0.02   0.000   0.200   0.000    0.00
  15.300   10.52    3.27    0.11   0.000   0.200   0.000    0.00
  15.350   10.34    3.24    0.34   0.000   0.200   0.000    0.00
  15.400   10.58    6.36    0.25   0.000   0.200   0.000    0.00
  15.450   10.46    3.63    0.12   0.000   0.200   0.000    0.00
  15.500   10.36    1.32   -0.16   0.000   0.200   0.000    0.00
  15.550   11.05    0.93   -0.36   0.000   0.200   0.000    0.00
  15.600   10.93    1.82   -0.41   0.000   0.200   0.000    0.00
  15.650   10.58    3.73   -0.74   0.000   0.200   0.000    0.00
  15.700   10.62    3.56   -1.02   0.000   0.200   0.000    0.00
  15.750   10.56    3.62   -0.72   0.000   0.200   0.000    0.00
  15.800   10.51    6.69   -0.69   0.000   0.200   0.000    0.00
  15.850   10.25    3.99   -0.63   0.000   0.200   0.000    0.00
  15.900    9.92    2.57   -0.85   0.000   0.200   0.000    0.00
  15.950    9.98   -0.28   -0.97   0.000   0.200   0.000    0.00
  16.000   10.32   -1.20   -0.65   0.000   0.200   0.000    0.00
  16.050    9.92    0.58   -0.38   0.000   0.200   0.000    0.00
  16.100    9.65    0.14   -0.34   0.000   0.200   0.000    0.00
  16.150    9.56   -1.71   -0.09   0.000   0.200   0.000    0.00
  16.200    9.47   -2.01    0.08   0.000   0.200   0.000    0.00
  16.250    9.86   -2.70    0.09   0.000   0.200   0.000    0.00
  16.300   10.55   -4.05    0.24   0.000   0.200   0.000    0.00
  16.350   10.15   -2.79   -0.13   0.000   0.200   0.000    0.00
  16.400   10.02   -1.99   -0.73   0.000   0.200   0.000    0.00
  16.450   10.20   -0.83   -1.07   0.000   0.200   0.000    0.00
  16.500   10.34   -1.70   -0.73   0.000   0.200   0.000    0.00
  16.550   10.37   -3.38   -0.70   0.000   0.200   0.000    0.00
  16.600   10.49   -2.87   -0.34   0.000   0.200   0.000    0.00
  16.650   10.50   -2.83   -0.20   0.000   0.200   0.000    0.00
  16.700   10.78   -1.55   -0.15   0.000   0.200   0.000    0.00
  16.750   10.93   -3.67   -0.33   0.000   0.200   0.000    0.00
  16.800   11.10   -4.85   -0.09   0.000   0.200   0.000    0.00
  16.850   11.11   -3.33    0.08   0.000   0.200   0.000    0.00
  16.900   11.33   -2.43    0.26   0.000   0.200   0.000    0.00
  16.950   11.25   -3.67    0.39   0.000   0.200   0.000    0.00
  17.000   10.65   -5.85    0.01   0.000   0.200   0.000    0.00
  17.050   10.40   -5.73   -0.21   0.000   0.200   0.000    0.00
  17.100   10.41   -2.77    0.08   0.000   0.200   0.000    0.00
  17.150   10.44   -5.03   -0.23   0.000   0.200   0.000    0.00
  17.200    9.95   -3.76   -0.48   0.000   0.200   0.000    0.00
  17.250   10.00   -1.93   -0.31   0.000   0.200   0.000    0.00
  17.300   10.27    0.10   -0.51   0.000   0.200   0.000    0.00
  17.350   10.21   -3.23   -0.32   0.000   0.200   0.000    0.00
  17.400   10.43   -3.26    0.09   0.000   0.200   0.000    0.00
  17.450   10.30   -1.42   -0.24   0.000   0.200   0.000    0.00
  17.500   10.58    0.56   -0.21   0.000   0.200   0.000    0.00
  17.550   10.77   -0.59    0.03   0.000   0.200   0.000    0.00
  17.600   10.76    0.20   -0.01   0.000   0.200   0.000    0.00
  17.650   10.67   -1.13    0.32   0.000   0.200   0.000    0.00
  17.700   10.54   -3.09    0.14   0.000   0.200   0.000    0.00
  17.750   10.20   -0.74   -0.21   0.000   0.200   0.000    0.00
  17.800   10.39    0.04   -0.65   0.000   0.200   0.000    0.00
  17.850   10.11   -1.85   -0.20   0.000   0.200   0.000    0.00
  17.900    9.84   -2.41   -0.09   0.000   0.200   0.000    0.00
  17.950    9.88   -2.75   -0.27   0.000   0.200   0.000    0.00
  18.000    9.87   -1.64   -0.15   0.000   0.200   0.000    0.00
  18.050    9.94   -1.73   -0.17   0.000   0.200   0.000    0.00
  18.100    9.68    0.75   -0.34   0.000   0.200   0.000    0.00
  18.150    9.45    1.97   -0.60   0.000   0.200   0.000    0.00
  18.200    9.48    2.54   -0.22   0.000   0.200   0.000    0.00
  18.250    9.82    0.50   -0.34   0.000   0.200   0.000    0.00
  18.300    9.77   -0.48   -0.47   0.000   0.200   0.000    0.00
  18.350    9.51   -1.34   -0.71   0.000   0.200   0.000    0.00
  18.400   10.13   -1.34   -0.79   0.000   0.200   0.000    0.00
  18.450   10.20   -2.03   -1.04   0.000   0.200   0.000    0.00
  18.500   10.09   -2.46   -1.20   0.000   0.200   0.000    0.00
  18.550   10.03   -4.65   -0.93   0.000   0.200   0.000    0.00
  18.600    9.86   -4.78   -0.79   0.000   0.200   0.000    0.00
  18.650   10.65   -3.09   -1.08   0.000   0.200   0.000    0.00
  18.700   10.71   -4.08   -0.85   0.000   0.200   0.000    0.00
  18.750   10.47   -4.14   -0.88   0.000   0.200   0.000    0.00
  18.800   10.75   -3.58   -0.38   0.000   0.200   0.000    0.00
  18.850   11.08   -2.13   -0.43   0.000   0.200   0.000    0.00
  18.900   10.84   -2.02   -0.62   0.000   0.200   0.000    0.00
  18.950   10.83   -3.30   -0.70   0.000   0.200   0.000    0.00
  19.000   10.70   -2.94   -0.73   0.000   0.200   0.000    0.00
  19.050   11.20   -2.25   -0.68   0.000   0.200   0.000    0.00
  19.100   11.47   -3.17   -1.02   0.000   0.200   0.000    0.00
  19.150   11.27   -3.69   -0.41   0.000   0.200   0.000    0.00
  19.200   11.14   -5.10   -0.68   0.000   0.200   0.000    0.00
  19.250   11.17   -6.89   -0.65   0.000   0.200   0.000    0.00
  19.300   11.07   -4.59   -0.82   0.000   0.200   0.000    0.00
  19.350   11.10   -4.23   -0.61   0.000   0.200   0.000    0.00
  19.400   10.81   -4.17   -0.80   0.000   0.200   0.000    0.00
  19.450   11.06   -4.15   -0.36   0.000   0.200   0.000    0.00
  19.500   10.93   -5.34   -0.27   0.000   0.200   0.000    0.00
  19.550   11.00   -7.23   -0.76   0.000   0.200   0.000    0.00
  19.600   10.80   -8.63   -0.71   0.000   0.200   0.000    0.00
  19.650   10.66   -7.91   -0.90   0.000   0.200   0.000    0.00
  19.700   10.82   -7.17   -0.84   0.000   0.200   0.000    0.00
  19.750   11.03   -6.37   -1.23   0.000   0.200   0.000    0.00
  19.800   11.11   -8.02   -0.83   0.000   0.200   0.000    0.00
  19.850   11.07   -9.62   -0.27   0.000   0.200   0.000    0.00
  19.900   11.03   -8.43   -0.45   0.000   0.200   0.000    0.00
  19.950   11.20  -10.19   -0.40   0.000   0.200   0.000    0.00
  20.000   10.40   -8.87   -0.50   0.000   0.200   0.000    0.00
  20.050   10.32   -8.01   -1.37   0.000   0.200   0.000    0.00
  20.100   10.28   -7.86   -0.96   0.000   0.200   0.000    0.00
  20.150   10.70  -10.49   -1.01   0.000   0.200   0.000    0.00
  20.200   10.82   -9.68   -1.07   0.000   0.200   0.000    0.00
  20.250   10.85   -9.10   -0.98   0.000   0.200   0.000    0.00
  20.300   10.74   -8.80   -1.10   0.000   0.200   0.000    0.00
  20.350   10.85   -8.22   -1.40   0.000   0.200   0.000    0.00
  20.400   11.13   -8.47   -1.42   0.000   0.200   0.000    0.00
  20.450   11.30   -6.61   -1.24   0.000   0.200   0.000    0.00
  20.500   11.66   -6.86   -1.17   0.000   0.200   0.000    0.00
  20.550   11.53   -8.17   -1.03   0.000   0.200   0.000    0.00
  20.600   11.70  -10.35   -0.77   0.000   0.200   0.000    0.00
  20.650   11.74  -13.19   -0.96   0.000   0.200   0.000    0.00
  20.700   11.29  -13.01   -0.53   0.000   0.200   0.000    0.00
  20.750   10.81  -12.13   -0.06   0.000   0.200   0.000    0.00
  20.800   10.66  -11.55   -0.52   0.000   0.200   0.000    0.00
  20.850   10.68  -11.20   -0.89   0.000   0.200   0.000    0.00
  20.900   10.96   -8.37   -1.21   0.000   0.200   0.000    0.00
  20.950   10.92   -6.87   -0.99   0.000   0.200   0.000    0.00
  21.000   10.77   -5.20   -0.89   0.000   0.200   0.000    0.00
  21.050   10.97   -3.02   -0.72   0.000   0.200   0.000    0.00
  21.100   11.48   -1.83   -0.40   0.000   0.200   0.000    0.00
  21.150   11.12   -1.05   -0.69   0.000   0.200   0.000    0.00
  21.200   10.77   -3.24   -0.72   0.000   0.200   0.000    0.00
  21.250   10.57   -2.99   -0.42   0.000   0.200   0.000    0.00
  21.300    9.88   -2.18   -0.93   0.000   0.200   0.000    0.00
  21.350    9.72   -1.04   -0.74   0.000   0.200   0.000    0.00
  21.400   10.20   -1.09   -0.41   0.000   0.200   0.000    0.00
  21.450    9.90   -0.75   -0.50   0.000   0.200   0.000    0.00
  21.500    9.61   -0.59   -0.23   0.000   0.200   0.000    0.00
  21.550    9.94   -2.53   -0.14   0.000   0.200   0.000    0.00
  21.600    9.75   -3.92   -0.60   0.000   0.200   0.000    0.00
  21.650    9.81   -4.89   -0.37   0.000   0.200   0.000    0.00
  21.700   10.16   -4.95   -0.25   0.000   0.200   0.000    0.00
  21.750   10.18   -4.37   -0.14   0.000   0.200   0.000    0.00
  21.800    9.77   -6.65   -0.22   0.000   0.200   0.000    0.00
  21.850   10.17   -7.61   -0.40   0.000   0.200   0.000    0.00
  21.900   10.48   -5.72   -0.20   0.000   0.200   0.000    0.00
  21.950   10.58   -4.53   -0.65   0.000   0.200   0.000    0.00
  22.000   10.52   -2.49   -0.94   0.000   0.200   0.000    0.00
  22.050   10.52   -3.90   -1.26   0.000   0.200   0.000    0.00
  22.100   10.40   -3.62   -0.89   0.000   0.200   0.000    0.00
  22.150   10.78   -0.80   -0.57   0.000   0.200   0.000    0.00
  22.200   10.85   -1.04   -0.58   0.000   0.200   0.000    0.00
  22.250   11.04    0.03   -0.41   0.000   0.200   0.000    0.00
  22.300   11.09   -0.30   -0.59   0.000   0.200   0.000    0.00
  22.350   10.89   -1.12   -0.83   0.000   0.200   0.000    0.00