! This hub-height wind-speed file was generated by TurbSim (v1.06.00, 21-Sep-2012) on 16-Jun-2018 at 18:31:25.
!
! The requested statistics for this data were:
!    Mean Total Wind Speed =    7.000 m/s
!    Turbulence Intensity  =   38.848%
!
!   Time  HorSpd  WndDir  VerSpd  HorShr  VerShr  LnVShr  GstSpd
!  (sec)   (m/s)   (deg)   (m/s)     (-)     (-)     (-)   (m/s)
   0.000    8.75   -8.98   -1.57   0.000   0.200   0.000    0.00
   0.050    9.02   -8.95   -1.37   0.000   0.200   0.000    0.00
   0.100    9.10  -12.24   -1.01   0.000   0.200   0.000    0.00
   0.150    8.38  -12.20   -1.19   0.000   0.200   0.000    0.00
   0.200    8.38   -9.22   -1.38   0.000   0.200   0.000    0.00
   0.250    8.46   -9.87   -1.98   0.000   0.200   0.000    0.00
   0.300    8.14  -10.87   -2.31   0.000   0.200   0.000    0.00
   0.350    8.03   -8.70   -2.41   0.000   0.200   0.000    0.00
   0.400    7.95   -9.39   -1.78   0.000   0.200   0.000    0.00
   0.450    7.72   -8.75   -1.54   0.000   0.200   0.000    0.00
   0.500    7.59  -11.76   -1.91   0.000   0.200   0.000    0.00
   0.550    7.40   -9.90   -2.31   0.000   0.200   0.000    0.00
   0.600    7.45  -15.40   -1.24   0.000   0.200   0.000    0.00
   0.650    7.98   -8.30   -1.08   0.000   0.200   0.000    0.00
   0.700    7.63  -11.43   -0.90   0.000   0.200   0.000    0.00
   0.750    7.47  -12.33   -0.69   0.000   0.200   0.000    0.00
   0.800    6.74  -14.96   -1.18   0.000   0.200   0.000    0.00
   0.850    6.06   -9.05   -1.23   0.000   0.200   0.000    0.00
   0.900    6.18   -8.23   -0.47   0.000   0.200   0.000    0.00
   0.950    6.67   -8.17   -0.73   0.000   0.200   0.000    0.00
   1.000    6.71   -2.91   -1.04   0.000   0.200   0.000    0.00
   1.050    6.62   -5.95   -1.04   0.000   0.200   0.000    0.00
   1.100    6.82   -4.55   -1.22   0.000   0.200   0.000    0.00
   1.150    6.76   -3.64   -1.74   0.000   0.200   0.000    0.00
   1.200    6.36   -5.45   -1.95   0.000   0.200   0.000    0.00
   1.250    6.81   -3.85   -2.51   0.000   0.200   0.000    0.00
   1.300    7.15   -2.98   -2.30   0.000   0.200   0.000    0.00
   1.350    6.84   -1.85   -2.78   0.000   0.200   0.000    0.00
   1.400    7.05    1.67   -2.94   0.000   0.200   0.000    0.00
   1.450    7.49   -2.57   -3.28   0.000   0.200   0.000    0.00
   1.500    7.86   -5.66   -3.19   0.000   0.200   0.000    0.00
   1.550    7.99   -2.30   -2.61   0.000   0.200   0.000    0.00
   1.600    7.93   -2.14   -2.22   0.000   0.200   0.000    0.00
   1.650    7.53   -2.07   -2.12   0.000   0.200   0.000    0.00
   1.700    7.15   -3.60   -2.42   0.000   0.200   0.000    0.00
   1.750    7.59   -6.42   -2.45   0.000   0.200   0.000    0.00
   1.800    7.93   -9.58   -2.30   0.000   0.200   0.000    0.00
   1.850    7.38   -8.15   -2.45   0.000   0.200   0.000    0.00
   1.900    7.68   -9.15   -2.30   0.000   0.200   0.000    0.00
   1.950    7.67   -7.09   -1.34   0.000   0.200   0.000    0.00
   2.000    7.59  -12.19   -0.59   0.000   0.200   0.000    0.00
   2.050    7.91  -19.63   -1.33   0.000   0.200   0.000    0.00
   2.100    8.48  -17.84   -1.13   0.000   0.200   0.000    0.00
   2.150    8.14  -18.15   -1.15   0.000   0.200   0.000    0.00
   2.200    8.30  -19.68   -1.08   0.000   0.200   0.000    0.00
   2.250    7.91  -13.96   -1.34   0.000   0.200   0.000    0.00
   2.300    8.04  -18.63   -1.02   0.000   0.200   0.000    0.00
   2.350    7.29  -12.76   -1.00   0.000   0.200   0.000    0.00
   2.400    6.78  -14.98   -1.42   0.000   0.200   0.000    0.00
   2.450    6.92  -17.05   -0.77   0.000   0.200   0.000    0.00
   2.500    6.98  -11.41   -0.12   0.000   0.200   0.000    0.00
   2.550    6.87   -9.07   -0.44   0.000   0.200   0.000    0.00
   2.600    6.73   -8.46   -0.10   0.000   0.200   0.000    0.00
   2.650    6.43  -10.39   -0.15   0.000   0.200   0.000    0.00
   2.700    5.98  -13.78    0.15   0.000   0.200   0.000    0.00
   2.750    5.77  -18.38    0.29   0.000   0.200   0.000    0.00
   2.800    6.30  -19.12    0.45   0.000   0.200   0.000    0.00
   2.850    7.11  -17.35    0.39   0.000   0.200   0.000    0.00
   2.900    6.56  -19.69    0.51   0.000   0.200   0.000    0.00
   2.950    6.75  -22.13    0.96   0.000   0.200   0.000    0.00
   3.000    7.28  -24.40    0.57   0.000   0.200   0.000    0.00
   3.050    7.64  -18.31    0.88   0.000   0.200   0.000    0.00
   3.100    7.77  -18.02    0.95   0.000   0.200   0.000    0.00
   3.150    7.68  -16.53    1.41   0.000   0.200   0.000    0.00
   3.200    7.34  -20.99    1.64   0.000   0.200   0.000    0.00
   3.250    7.27  -18.95    1.34   0.000   0.200   0.000    0.00
   3.300    6.87  -19.94    1.15   0.000   0.200   0.000    0.00
   3.350    7.02  -17.22    0.81   0.000   0.200   0.000    0.00
   3.400    6.95  -14.10    0.16   0.000   0.200   0.000    0.00
   3.450    6.72  -12.23    0.48   0.000   0.200   0.000    0.00
   3.500    7.16   -8.30   -0.17   0.000   0.200   0.000    0.00
   3.550    7.31   -3.15    0.23   0.000   0.200   0.000    0.00
   3.600    7.23    1.09    0.46   0.000   0.200   0.000    0.00
   3.650    7.34   -4.22    0.23   0.000   0.200   0.000    0.00
   3.700    7.40   -2.80    0.09   0.000   0.200   0.000    0.00
   3.750    7.47   -9.11   -0.18   0.000   0.200   0.000    0.00
   3.800    7.37   -3.03   -0.07   0.000   0.200   0.000    0.00
   3.850    7.85   -0.97   -0.06   0.000   0.200   0.000    0.00
   3.900    8.00   -0.81    0.13   0.000   0.200   0.000    0.00
   3.950    7.41   -0.77    0.20   0.000   0.200   0.000    0.00
   4.000    7.13   -0.44    0.06   0.000   0.200   0.000    0.00
   4.050    7.28   -0.13   -0.04   0.000   0.200   0.000    0.00
   4.100    7.14    0.10   -0.15   0.000   0.200   0.000    0.00
   4.150    7.35   -5.22    0.57   0.000   0.200   0.000    0.00
   4.200    7.72   -4.50    0.24   0.000   0.200   0.000    0.00
   4.250    8.31   -3.38    0.75   0.000   0.200   0.000    0.00
   4.300    7.83   -0.24    0.68   0.000   0.200   0.000    0.00
   4.350    7.48    1.25    0.25   0.000   0.200   0.000    0.00
   4.400    8.03    0.46   -0.04   0.000   0.200   0.000    0.00
   4.450    7.88    1.25   -0.31   0.000   0.200   0.000    0.00
   4.500    7.81    6.35    0.14   0.000   0.200   0.000    0.00
   4.550    8.05    4.36   -0.10   0.000   0.200   0.000    0.00
   4.600    8.13    7.02   -0.11   0.000   0.200   0.000    0.00
   4.650    7.71    5.66    0.45   0.000   0.200   0.000    0.00
   4.700    7.75   -1.53    0.75   0.000   0.200   0.000    0.00
   4.750    7.65   -3.89    0.51   0.000   0.200   0.000    0.00
   4.800    7.29    3.02    1.88   0.000   0.200   0.000    0.00
   4.850    7.56    2.74    1.37   0.000   0.200   0.000    0.00
   4.900    7.23    1.73    1.72   0.000   0.200   0.000    0.00
   4.950    6.93    0.55    1.85   0.000   0.200   0.000    0.00
   5.000    7.13   -0.20    1.42   0.000   0.200   0.000    0.00
   5.050    7.49    2.11    1.28   0.000   0.200   0.000    0.00
   5.100    7.62    5.78    1.22   0.000   0.200   0.000    0.00
   5.150    7.96   11.93    1.04   0.000   0.200   0.000    0.00
   5.200    8.16   13.46    0.91   0.000   0.200   0.000    0.00
   5.250    8.14   18.65    1.19   0.000   0.200   0.000    0.00
   5.300    8.53   20.25    1.52   0.000   0.200   0.000    0.00
   5.350    8.35   19.18    1.62   0.000   0.200   0.000    0.00
   5.400    8.26   18.07    1.97   0.000   0.200   0.000    0.00
   5.450    7.34   13.56    2.37   0.000   0.200   0.000    0.00
   5.500    7.05    8.68    1.27   0.000   0.200   0.000    0.00
   5.550    7.35   11.38    0.73   0.000   0.200   0.000    0.00
   5.600    7.12   12.55    1.04   0.000   0.200   0.000    0.00
   5.650    7.03    9.35    2.38   0.000   0.200   0.000    0.00
   5.700    7.24   10.16    1.86   0.000   0.200   0.000    0.00
   5.750    7.44    4.18    1.44   0.000   0.200   0.000    0.00
   5.800    7.21    8.21    2.04   0.000   0.200   0.000    0.00
   5.850    7.54   12.32    2.11   0.000   0.200   0.000    0.00
   5.900    7.74   12.71    1.47   0.000   0.200   0.000    0.00
   5.950    7.91   12.29    2.25   0.000   0.200   0.000    0.00
   6.000    8.15    7.79    1.97   0.000   0.200   0.000    0.00
   6.050    8.02    4.28    2.65   0.000   0.200   0.000    0.00
   6.100    8.24    7.41    2.82   0.000   0.200   0.000    0.00
   6.150    8.98    6.54    2.62   0.000   0.200   0.000    0.00
   6.200    9.18    9.14    2.10   0.000   0.200   0.000    0.00
   6.250    9.89   10.29    1.22   0.000   0.200   0.000    0.00
   6.300    9.78    9.50    1.10   0.000   0.200   0.000    0.00
   6.350    9.92   11.10    1.32   0.000   0.200   0.000    0.00
   6.400    9.63    6.89    1.66   0.000   0.200   0.000    0.00
   6.450    9.66    6.34    1.67   0.000   0.200   0.000    0.00
   6.500    9.85    7.80    1.53   0.000   0.200   0.000    0.00
   6.550    9.43    2.17    1.26   0.000   0.200   0.000    0.00
   6.600    9.14    2.67    1.34   0.000   0.200   0.000    0.00
   6.650    9.02    3.62    1.38   0.000   0.200   0.000    0.00
   6.700    8.56    2.10    0.87   0.000   0.200   0.000    0.00
   6.750    8.90    2.52    1.47   0.000   0.200   0.000    0.00
   6.800    8.87    4.20    1.16   0.000   0.200   0.000    0.00
   6.850    9.02    2.25    1.21   0.000   0.200   0.000    0.00
   6.900    8.99    4.83    1.73   0.000   0.200   0.000    0.00
   6.950    8.67    4.31    0.99   0.000   0.200   0.000    0.00
   7.000    8.94    0.04    1.59   0.000   0.200   0.000    0.00
   7.050    9.54    2.02    1.17   0.000   0.200   0.000    0.00
   7.100    9.85    3.90    1.84   0.000   0.200   0.000    0.00
   7.150    9.60    4.30    2.06   0.000   0.200   0.000    0.00
   7.200    8.98    5.63    1.72   0.000   0.200   0.000    0.00
   7.250    8.97   10.89    1.51   0.000   0.200   0.000    0.00
   7.300    9.26    4.42    0.87   0.000   0.200   0.000    0.00
   7.350    9.61    4.40    0.59   0.000   0.200   0.000    0.00
   7.400    9.09    9.32    0.69   0.000   0.200   0.000    0.00
   7.450    9.39   16.19   -0.21   0.000   0.200   0.000    0.00
   7.500    9.63   17.50    0.57   0.000   0.200   0.000    0.00
   7.550    9.78   18.06    0.60   0.000   0.200   0.000    0.00
   7.600    9.80   16.19    0.78   0.000   0.200   0.000    0.00
   7.650    9.62   13.82    0.64   0.000   0.200   0.000    0.00
   7.700    9.56   16.75   -0.01   0.000   0.200   0.000    0.00
   7.750   10.40   17.29   -0.18   0.000   0.200   0.000    0.00
   7.800   10.72   12.49   -0.28   0.000   0.200   0.000    0.00
   7.850   11.49   14.15   -0.85   0.000   0.200   0.000    0.00
   7.900   11.34   12.82   -1.01   0.000   0.200   0.000    0.00
   7.950   11.32   17.91   -0.50   0.000   0.200   0.000    0.00
   8.000   10.76   20.27   -0.28   0.000   0.200   0.000    0.00
   8.050   10.51   19.01   -0.65   0.000   0.200   0.000    0.00
   8.100   10.15   19.95   -0.67   0.000   0.200   0.000    0.00
   8.150   10.58   19.48   -0.75   0.000   0.200   0.000    0.00
   8.200   10.85   20.53   -0.57   0.000   0.200   0.000    0.00
   8.250   10.63   19.28   -0.58   0.000   0.200   0.000    0.00
   8.300   10.95   14.02   -0.95   0.000   0.200   0.000    0.00
   8.350   11.24   11.72   -1.06   0.000   0.200   0.000    0.00
   8.400   11.44   16.61   -1.72   0.000   0.200   0.000    0.00
   8.450   11.70   16.96   -2.01   0.000   0.200   0.000    0.00
   8.500   11.59   22.16   -2.05   0.000   0.200   0.000    0.00
   8.550   11.41   22.55   -2.42   0.000   0.200   0.000    0.00
   8.600   11.54   22.03   -2.17   0.000   0.200   0.000    0.00
   8.650   11.51   23.51   -2.16   0.000   0.200   0.000    0.00
   8.700   12.02   22.28   -1.85   0.000   0.200   0.000    0.00
   8.750   11.74   20.63   -1.94   0.000   0.200   0.000    0.00
   8.800   11.64   21.12   -1.37   0.000   0.200   0.000    0.00
   8.850   11.85   16.87   -0.82   0.000   0.200   0.000    0.00
   8.900   10.99   14.71   -0.57   0.000   0.200   0.000    0.00
   8.950   11.22   17.38    0.08   0.000   0.200   0.000    0.00
   9.000   11.57   17.59    0.18   0.000   0.200   0.000    0.00
   9.050   11.70   19.59    0.02   0.000   0.200   0.000    0.00
   9.100   11.18   20.41   -0.97   0.000   0.200   0.000    0.00
   9.150   11.32   20.40   -0.79   0.000   0.200   0.000    0.00
   9.200   11.45   16.13   -0.78   0.000   0.200   0.000    0.00
   9.250   11.23   15.36   -1.03   0.000   0.200   0.000    0.00
   9.300   10.89   13.10   -1.30   0.000   0.200   0.000    0.00
   9.350   10.64    9.16   -0.67   0.000   0.200   0.000    0.00
   9.400   10.89    8.11   -0.69   0.000   0.200   0.000    0.00
   9.450   10.94    8.06   -0.17   0.000   0.200   0.000    0.00
   9.500   10.98    7.59   -0.13   0.000   0.200   0.000    0.00
   9.550   10.81    9.25    0.07   0.000   0.200   0.000    0.00
   9.600   10.88   10.03   -0.14   0.000   0.200   0.000    0.00
   9.650   11.81   12.29   -0.06   0.000   0.200   0.000    0.00
   9.700   11.63   11.70    0.10   0.000   0.200   0.000    0.00
   9.750   11.58   13.23   -0.65   0.000   0.200   0.000    0.00
   9.800   11.29   12.99   -1.36   0.000   0.200   0.000    0.00
   9.850   11.27   13.83   -1.02   0.000   0.200   0.000    0.00
   9.900   11.45   14.35   -1.11   0.000   0.200   0.000    0.00
   9.950   10.81   16.67   -1.32   0.000   0.200   0.000    0.00
  10.000   11.06   14.78   -1.59   0.000   0.200   0.000    0.00
  10.050   10.46   13.19   -1.74   0.000   0.200   0.000    0.00
  10.100   11.29   14.69   -1.25   0.000   0.200   0.000    0.00
  10.150   10.96   13.96   -0.59   0.000   0.200   0.000    0.00
  10.200   10.21    9.69   -0.24   0.000   0.200   0.000    0.00
  10.250   10.28    6.60   -0.11   0.000   0.200   0.000    0.00
  10.300   10.44    9.44   -0.39   0.000   0.200   0.000    0.00
  10.350   10.33   13.58   -0.57   0.000   0.200   0.000    0.00
  10.400   10.94   12.08   -0.11   0.000   0.200   0.000    0.00
  10.450   11.22   15.40    0.30   0.000   0.200   0.000    0.00
  10.500   12.88   16.38    0.56   0.000   0.200   0.000    0.00
  10.550   12.78   14.48    0.64   0.000   0.200   0.000    0.00
  10.600   12.12   10.94    0.37   0.000   0.200   0.000    0.00
  10.650   11.57   10.94    0.66   0.000   0.200   0.000    0.00
  10.700   11.39   13.41    0.63   0.000   0.200   0.000    0.00
  10.750   11.61   15.95    0.08   0.000   0.200   0.000    0.00
  10.800   11.62   15.96    0.39   0.000   0.200   0.000    0.00
  10.850   11.82   15.96    0.68   0.000   0.200   0.000    0.00
  10.900   12.17   13.65    0.43   0.000   0.200   0.000    0.00
  10.950   12.52   12.83    0.08   0.000   0.200   0.000    0.00
  11.000   12.15   14.87   -0.09   0.000   0.200   0.000    0.00
  11.050   12.19   13.00   -0.71   0.000   0.200   0.000    0.00
  11.100   12.50   11.03   -0.21   0.000   0.200   0.000    0.00
  11.150   12.67   10.25   -0.43   0.000   0.200   0.000    0.00
  11.200   12.72   13.20   -0.65   0.000   0.200   0.000    0.00
  11.250   12.94   11.25   -0.50   0.000   0.200   0.000    0.00
  11.300   13.00   13.02    0.02   0.000   0.200   0.000    0.00
  11.350   13.44   11.34   -0.23   0.000   0.200   0.000    0.00
  11.400   13.11   12.26    0.28   0.000   0.200   0.000    0.00
  11.450   12.39   14.19    0.03   0.000   0.200   0.000    0.00
  11.500   12.15   11.21    0.14   0.000   0.200   0.000    0.00
  11.550   11.85   13.66    0.18   0.000   0.200   0.000    0.00
  11.600   11.43   12.16   -0.21   0.000   0.200   0.000    0.00
  11.650   11.30   14.59   -0.32   0.000   0.200   0.000    0.00
  11.700   11.22   17.17   -0.17   0.000   0.200   0.000    0.00
  11.750   11.07   18.34   -0.48   0.000   0.200   0.000    0.00
  11.800   10.56   15.02   -1.20   0.000   0.200   0.000    0.00
  11.850   10.34   11.00   -1.20   0.000   0.200   0.000    0.00
  11.900   10.84    8.33   -1.25   0.000   0.200   0.000    0.00
  11.950   11.11   11.54   -0.59   0.000   0.200   0.000    0.00
  12.000   11.04   13.68   -0.02   0.000   0.200   0.000    0.00
  12.050   10.53   11.20   -1.23   0.000   0.200   0.000    0.00
  12.100   10.28   14.59   -1.28   0.000   0.200   0.000    0.00
  12.150    9.79   15.08   -0.96   0.000   0.200   0.000    0.00
  12.200    9.41   17.06   -0.51   0.000   0.200   0.000    0.00
  12.250    9.22   10.84   -0.42   0.000   0.200   0.000    0.00
  12.300    9.20   12.30   -0.32   0.000   0.200   0.000    0.00
  12.350    9.65   14.58   -0.17   0.000   0.200   0.000    0.00
  12.400    9.85   11.59   -0.10   0.000   0.200   0.000    0.00
  12.450   10.12   11.47    0.26   0.000   0.200   0.000    0.00
  12.500   10.54    9.47   -0.47   0.000   0.200   0.000    0.00
  12.550   10.89    7.22   -0.40   0.000   0.200   0.000    0.00
  12.600   11.22    7.61   -0.67   0.000   0.200   0.000    0.00
  12.650   11.23    5.91   -0.41   0.000   0.200   0.000    0.00
  12.700   10.83    6.05   -0.62   0.000   0.200   0.000    0.00
  12.750   10.25    8.94   -0.25   0.000   0.200   0.000    0.00
  12.800    9.91   11.42   -0.77   0.000   0.200   0.000    0.00
  12.850    9.72   13.21   -0.42   0.000   0.200   0.000    0.00
  12.900    9.60   14.54   -0.26   0.000   0.200   0.000    0.00
  12.950    9.91   15.31   -0.17   0.000   0.200   0.000    0.00
  13.000   10.05   16.80   -0.27   0.000   0.200   0.000    0.00
  13.050    9.70   16.04   -0.44   0.000   0.200   0.000    0.00
  13.100    9.89   12.23   -0.34   0.000   0.200   0.000    0.00
  13.150    9.60    9.78   -0.10   0.000   0.200   0.000    0.00
  13.200    9.07   11.95    0.18   0.000   0.200   0.000    0.00
  13.250    9.13    9.24   -0.06   0.000   0.200   0.000    0.00
  13.300    9.28   10.03    0.28   0.000   0.200   0.000    0.00
  13.350    9.13    7.32    0.65   0.000   0.200   0.000    0.00
  13.400    8.91    5.78    0.88   0.000   0.200   0.000    0.00
  13.450    8.44    8.28    1.40   0.000   0.200   0.000    0.00
  13.500    8.65    5.41    0.72   0.000   0.200   0.000    0.00
  13.550    8.89    2.24    0.41   0.000   0.200   0.000    0.00
  13.600    8.14    3.54    1.20   0.000   0.200   0.000    0.00
  13.650    8.43    3.02    1.23   0.000   0.200   0.000    0.00
  13.700    8.37    0.70    1.06   0.000   0.200   0.000    0.00
  13.750    8.89    1.27    0.51   0.000   0.200   0.000    0.00
  13.800    8.87    3.07    0.14   0.000   0.200   0.000    0.00
  13.850    8.99    5.93    0.27   0.000   0.200   0.000    0.00
  13.900    9.00    3.35   -0.41   0.000   0.200   0.000    0.00
  13.950    9.02    3.92   -1.49   0.000   0.200   0.000    0.00
  14.000    9.30    4.49   -1.49   0.000   0.200   0.000    0.00
  14.050    9.72    3.29   -1.86   0.000   0.200   0.000    0.00
  14.100   10.54    0.63   -1.22   0.000   0.200   0.000    0.00
  14.150   10.50    6.54   -0.38   0.000   0.200   0.000    0.00
  14.200   10.18    6.29   -0.40   0.000   0.200   0.000    0.00
  14.250    9.77    7.54   -0.37   0.000   0.200   0.000    0.00
  14.300    9.51   11.45   -0.11   0.000   0.200   0.000    0.00
  14.350    9.27    7.09   -0.52   0.000   0.200   0.000    0.00
  14.400    8.98    6.37   -0.64   0.000   0.200   0.000    0.00
  14.450    8.50    5.20   -0.42   0.000   0.200   0.000    0.00
  14.500    8.91    7.99    0.18   0.000   0.200   0.000    0.00
  14.550    9.08    8.18   -0.28   0.000   0.200   0.000    0.00
  14.600    8.85    6.48   -0.06   0.000   0.200   0.000    0.00
  14.650    8.50    5.83   -0.40   0.000   0.200   0.000    0.00
  14.700    9.15    5.05   -0.22   0.000   0.200   0.000    0.00
  14.750    8.86    3.41    0.24   0.000   0.200   0.000    0.00
  14.800    9.26    1.86    0.13   0.000   0.200   0.000    0.00
  14.850    9.65    4.33   -0.12   0.000   0.200   0.000    0.00
  14.900    9.31   -0.75    0.16   0.000   0.200   0.000    0.00
  14.950    9.65    2.38    0.10   0.000   0.200   0.000    0.00
  15.000    9.64    3.98    0.13   0.000   0.200   0.000    0.00
  15.050    9.70    2.32   -0.88   0.000   0.200   0.000    0.00
  15.100   10.06    6.39   -1.19   0.000   0.200   0.000    0.00
  15.150   10.10    8.22   -1.22   0.000   0.200   0.000    0.00
  15.200   10.05    9.19   -1.42   0.000   0.200   0.000    0.00
  15.250    9.98   10.13   -1.95   0.000   0.200   0.000    0.00
  15.300   10.35    6.36   -1.38   0.000   0.200   0.000    0.00
  15.350   10.48    4.34   -0.82   0.000   0.200   0.000    0.00
  15.400   10.58    7.06   -0.03   0.000   0.200   0.000    0.00
  15.450   10.91    8.65    0.09   0.000   0.200   0.000    0.00
  15.500   11.38    9.70    0.03   0.000   0.200   0.000    0.00
  15.550   11.42    7.97   -0.31   0.000   0.200   0.000    0.00
  15.600   11.76    5.78   -1.07   0.000   0.200   0.000    0.00
  15.650   12.04    2.65   -1.14   0.000   0.200   0.000    0.00
  15.700   10.69    4.52   -1.44   0.000   0.200   0.000    0.00
  15.750   10.36    4.10   -1.47   0.000   0.200   0.000    0.00
  15.800   10.17   -1.56   -1.94   0.000   0.200   0.000    0.00
  15.850   10.18   -1.66   -1.98   0.000   0.200   0.000    0.00
  15.900   10.36   -3.86   -1.60   0.000   0.200   0.000    0.00
  15.950    9.85   -4.15   -2.06   0.000   0.200   0.000    0.00
  16.000    9.62   -5.88   -1.99   0.000   0.200   0.000    0.00
  16.050    9.69   -1.60   -2.31   0.000   0.200   0.000    0.00
  16.100    9.70   -2.03   -2.90   0.000   0.200   0.000    0.00
  16.150    9.86   -1.92   -2.86   0.000   0.200   0.000    0.00
  16.200   10.59   -3.63   -2.08   0.000   0.200   0.000    0.00
  16.250   10.77   -4.24   -1.95   0.000   0.200   0.000    0.00
  16.300   10.37   -6.44   -2.45   0.000   0.200   0.000    0.00
  16.350   10.50   -3.66   -2.17   0.000   0.200   0.000    0.00
  16.400   10.74   -4.47   -2.03   0.000   0.200   0.000    0.00
  16.450   10.63   -5.12   -1.64   0.000   0.200   0.000    0.00
  16.500   11.21   -2.69   -0.62   0.000   0.200   0.000    0.00
  16.550   11.35   -7.56   -0.29   0.000   0.200   0.000    0.00
  16.600   11.48   -7.21   -0.67   0.000   0.200   0.000    0.00
  16.650   11.25   -6.34   -0.91   0.000   0.200   0.000    0.00
  16.700   11.44   -7.33   -0.95   0.000   0.200   0.000    0.00
  16.750   11.50   -9.34   -0.82   0.000   0.200   0.000    0.00
  16.800   11.33   -8.94   -0.46   0.000   0.200   0.000    0.00
  16.850   10.82  -10.52   -0.72   0.000   0.200   0.000    0.00
  16.900    9.92   -8.15   -0.05   0.000   0.200   0.000    0.00
  16.950    9.20   -9.34    0.34   0.000   0.200   0.000    0.00
  17.000    9.22   -7.60   -0.17   0.000   0.200   0.000    0.00
  17.050    8.42   -6.79   -0.29   0.000   0.200   0.000    0.00
  17.100    8.29   -9.01   -0.13   0.000   0.200   0.000    0.00
  17.150    8.31   -6.98    0.11   0.000   0.200   0.000    0.00
  17.200    7.79   -7.49    0.25   0.000   0.200   0.000    0.00
  17.250    7.45   -3.87   -0.38   0.000   0.200   0.000    0.00
  17.300    7.38   -2.12   -0.83   0.000   0.200   0.000    0.00
  17.350    7.97   -0.95   -1.02   0.000   0.200   0.000    0.00
  17.400    8.57   -0.03   -0.86   0.000   0.200   0.000    0.00
  17.450    8.25    3.13   -0.79   0.000   0.200   0.000    0.00
  17.500    8.37    1.79   -1.04   0.000   0.200   0.000    0.00
  17.550    8.09    9.92   -0.68   0.000   0.200   0.000    0.00
  17.600    7.87   10.00   -1.04   0.000   0.200   0.000    0.00
  17.650    8.09    4.47   -1.22   0.000   0.200   0.000    0.00
  17.700    8.18    6.37   -1.11   0.000   0.200   0.000    0.00
  17.750    7.84    6.18   -0.90   0.000   0.200   0.000    0.00
  17.800    7.95    4.97   -0.54   0.000   0.200   0.000    0.00
  17.850    7.93    6.09    0.12   0.000   0.200   0.000    0.00
  17.900    7.71    5.73   -0.13   0.000   0.200   0.000    0.00
  17.950    7.22   -0.50   -0.50   0.000   0.200   0.000    0.00
  18.000    7.16    2.17   -0.22   0.000   0.200   0.000    0.00
  18.050    7.89    3.98   -0.55   0.000   0.200   0.000    0.00
  18.100    7.69    0.27   -0.46   0.000   0.200   0.000    0.00
  18.150    7.19    0.60   -0.54   0.000   0.200   0.000    0.00
  18.200    7.08   -1.36   -0.82   0.000   0.200   0.000    0.00
  18.250    6.85    1.64   -0.78   0.000   0.200   0.000    0.00
  18.300    7.11   -3.16   -0.21   0.000   0.200   0.000    0.00
  18.350    7.63   -6.56    0.02   0.000   0.200   0.000    0.00
  18.400    8.07   -6.65    0.71   0.000   0.200   0.000    0.00
  18.450    8.56   -6.12    0.65   0.000   0.200   0.000    0.00
  18.500    8.88   -3.45    0.16   0.000   0.200   0.000    0.00
  18.550    9.13    3.44    0.35   0.000   0.200   0.000    0.00
  18.600    8.73    6.88    0.28   0.000   0.200   0.000    0.00
  18.650    9.03    3.26    0.40   0.000   0.200   0.000    0.00
  18.700    8.62   -0.83    0.60   0.000   0.200   0.000    0.00
  18.750    8.58   -2.24    1.15   0.000   0.200   0.000    0.00
  18.800    9.02   -4.66    1.10   0.000   0.200   0.000    0.00
  18.850    9.28   -9.32    1.24   0.000   0.200   0.000    0.00
  18.900    8.84  -10.18    1.06   0.000   0.200   0.000    0.00
  18.950    9.57  -13.86    1.40   0.000   0.200   0.000    0.00
  19.000    9.59   -8.93    1.39   0.000   0.200   0.000    0.00
  19.050   10.46  -10.36    1.37   0.000   0.200   0.000    0.00
  19.100   10.24  -14.91    1.29   0.000   0.200   0.000    0.00
  19.150    9.72  -17.91    1.53   0.000   0.200   0.000    0.00
  19.200    9.72  -17.24    2.02   0.000   0.200   0.000    0.00
  19.250    9.09  -17.99    1.82   0.000   0.200   0.000    0.00
  19.300    9.37  -20.55    2.02   0.000   0.200   0.000    0.00
  19.350    9.03  -19.69    2.02   0.000   0.200   0.000    0.00
  19.400    9.16  -15.08    1.51   0.000   0.200   0.000    0.00
  19.450    9.03  -12.29    1.37   0.000   0.200   0.000    0.00
  19.500    8.83  -13.12    0.75   0.000   0.200   0.000    0.00
  19.550    8.63  -12.94    0.46   0.000   0.200   0.000    0.00
  19.600    8.25  -12.85    0.38   0.000   0.200   0.000    0.00
  19.650    8.89  -12.63    0.86   0.000   0.200   0.000    0.00
  19.700    8.80  -12.49    1.24   0.000   0.200   0.000    0.00
  19.750    9.09  -10.70    1.80   0.000   0.200   0.000    0.00
  19.800    9.24  -10.74    1.52   0.000   0.200   0.000    0.00
  19.850    9.15  -16.47    1.80   0.000   0.200   0.000    0.00
  19.900    8.85  -14.94    2.35   0.000   0.200   0.000    0.00
  19.950    9.04  -10.61    1.64   0.000   0.200   0.000    0.00
  20.000    8.66   -9.86    0.77   0.000   0.200   0.000    0.00
  20.050    8.52   -8.62    0.36   0.000   0.200   0.000    0.00
  20.100    7.99   -8.98    0.29   0.000   0.200   0.000    0.00
  20.150    7.90   -3.33    0.53   0.000   0.200   0.000    0.00
  20.200    7.89    0.88    0.27   0.000   0.200   0.000    0.00
  20.250    7.37    4.38    0.77   0.000   0.200   0.000    0.00
  20.300    7.01    7.42    0.51   0.000   0.200   0.000    0.00
  20.350    6.89    4.02    0.78   0.000   0.200   0.000    0.00
  20.400    7.28    4.11    1.03   0.000   0.200   0.000    0.00
  20.450    7.10    3.50    0.76   0.000   0.200   0.000    0.00
  20.500    7.20    3.67    1.12   0.000   0.200   0.000    0.00
  20.550    6.83    2.93    1.58   0.000   0.200   0.000    0.00
  20.600    6.71   10.16    1.42   0.000   0.200   0.000    0.00
  20.650    6.36   11.78    1.03   0.000   0.200   0.000    0.00
  20.700    6.15   10.55    1.60   0.000   0.200   0.000    0.00
  20.750    6.81   12.60    1.77   0.000   0.200   0.000    0.00
  20.800    6.58   10.40    2.10   0.000   0.200   0.000    0.00
  20.850    6.84    8.85    1.97   0.000   0.200   0.000    0.00
  20.900    7.30    7.66    1.89   0.000   0.200   0.000    0.00
  20.950    6.81    4.48    1.58   0.000   0.200   0.000    0.00
  21.000    6.94    0.39    1.90   0.000   0.200   0.000    0.00
  21.050    6.85   -1.81    2.05   0.000   0.200   0.000    0.00
  21.100    7.67    1.72    2.10   0.000   0.200   0.000    0.00
  21.150    7.58   -0.99    2.71   0.000   0.200   0.000    0.00
  21.200    8.04    0.43    2.95   0.000   0.200   0.000    0.00
  21.250    8.39    3.02    3.05   0.000   0.200   0.000    0.00
  21.300    8.46    7.19    2.87   0.000   0.200   0.000    0.00
  21.350    8.01   10.96    2.68   0.000   0.200   0.000    0.00
  21.400    8.19   11.82    2.73   0.000   0.200   0.000    0.00
  21.450    8.03   13.18    2.47   0.000   0.200   0.000    0.00
  21.500    7.52   20.82    2.73   0.000   0.200   0.000    0.00
  21.550    7.71   22.44    2.56   0.000   0.200   0.000    0.00
  21.600    7.84   20.44    3.83   0.000   0.200   0.000    0.00
  21.650    7.49   19.56    3.51   0.000   0.200   0.000    0.00
  21.700    7.38   18.86    3.38   0.000   0.200   0.000    0.00
  21.750    6.66   13.55    3.15   0.000   0.200   0.000    0.00
  21.800    6.64    4.07    3.03   0.000   0.200   0.000    0.00
  21.850    6.56   -1.75    3.88   0.000   0.200   0.000    0.00
  21.900    6.85   -1.01    3.59   0.000   0.200   0.000    0.00
  21.950    7.00    2.48    3.82   0.000   0.200   0.000    0.00
  22.000    7.00    3.23    3.51   0.000   0.200   0.000    0.00
  22.050    7.29    4.39    2.61   0.000   0.200   0.000    0.00
  22.100    7.15    4.89    3.21   0.000   0.200   0.000    0.00
  22.150    7.04    7.63    3.43   0.000   0.200   0.000    0.00
  22.200    6.81    5.28    3.40   0.000   0.200   0.000    0.00
  22.250    7.07    2.70    3.43   0.000   0.200   0.000    0.00
  22.300    7.13    1.74    3.23   0.000   0.200   0.000    0.00
  22.350    6.71    2.25    2.94   0.000   0.200   0.000    0.00