! This hub-height wind-speed file was generated by TurbSim (v1.06.00, 21-Sep-2012) on 16-Jun-2018 at 18:36:41.
!
! The requested statistics for this data were:
!    Mean Total Wind Speed =   23.000 m/s
!    Turbulence Intensity  =   13.909%
!
!   Time  HorSpd  WndDir  VerSpd  HorShr  VerShr  LnVShr  GstSpd
!  (sec)   (m/s)   (deg)   (m/s)     (-)     (-)     (-)   (m/s)
   0.000   25.44  -12.70    0.16   0.000   0.200   0.000    0.00
   0.050   25.62  -14.01   -0.04   0.000   0.200   0.000    0.00
   0.100   26.84  -14.56   -0.33   0.000   0.200   0.000    0.00
   0.150   26.93  -12.56   -0.13   0.000   0.200   0.000    0.00
   0.200   26.78  -11.69    0.33   0.000   0.200   0.000    0.00
   0.250   27.04  -13.42    0.54   0.000   0.200   0.000    0.00
   0.300   26.53  -13.16   -0.42   0.000   0.200   0.000    0.00
   0.350   26.66  -13.58    0.37   0.000   0.200   0.000    0.00
   0.400   27.04  -10.72   -0.36   0.000   0.200   0.000    0.00
   0.450   28.13   -8.78    0.37   0.000   0.200   0.000    0.00
   0.500   27.95   -9.31    1.74   0.000   0.200   0.000    0.00
   0.550   27.46   -7.62    2.07   0.000   0.200   0.000    0.00
   0.600   27.04  -10.06    1.49   0.000   0.200   0.000    0.00
   0.650   27.80   -9.77    0.22   0.000   0.200   0.000    0.00
   0.700   27.08   -7.36   -0.10   0.000   0.200   0.000    0.00
   0.750   26.46   -7.62    0.17   0.000   0.200   0.000    0.00
   0.800   25.67   -6.13   -0.85   0.000   0.200   0.000    0.00
   0.850   25.31   -4.71   -1.33   0.000   0.200   0.000    0.00
   0.900   25.31   -4.65   -1.70   0.000   0.200   0.000    0.00
   0.950   25.46   -6.21   -1.42   0.000   0.200   0.000    0.00
   1.000   25.98   -4.22   -1.03   0.000   0.200   0.000    0.00
   1.050   24.80   -5.29   -1.54   0.000   0.200   0.000    0.00
   1.100   24.83   -4.40   -1.74   0.000   0.200   0.000    0.00
   1.150   23.28   -5.06   -1.80   0.000   0.200   0.000    0.00
   1.200   22.96   -5.86   -1.02   0.000   0.200   0.000    0.00
   1.250   23.20   -5.38   -0.15   0.000   0.200   0.000    0.00
   1.300   23.48   -6.97   -0.72   0.000   0.200   0.000    0.00
   1.350   24.28   -7.05   -0.02   0.000   0.200   0.000    0.00
   1.400   24.48   -6.44    0.10   0.000   0.200   0.000    0.00
   1.450   24.11   -7.27   -0.91   0.000   0.200   0.000    0.00
   1.500   23.48   -8.63   -0.71   0.000   0.200   0.000    0.00
   1.550   23.81   -8.71    0.49   0.000   0.200   0.000    0.00
   1.600   23.31   -9.31    0.68   0.000   0.200   0.000    0.00
   1.650   23.65   -7.12    1.36   0.000   0.200   0.000    0.00
   1.700   22.87   -7.37    1.57   0.000   0.200   0.000    0.00
   1.750   22.22   -8.49    1.50   0.000   0.200   0.000    0.00
   1.800   21.95  -10.81    2.15   0.000   0.200   0.000    0.00
   1.850   22.01  -12.09    2.15   0.000   0.200   0.000    0.00
   1.900   22.21  -12.00    1.01   0.000   0.200   0.000    0.00
   1.950   23.14  -12.34    1.15   0.000   0.200   0.000    0.00
   2.000   23.07  -11.57   -0.14   0.000   0.200   0.000    0.00
   2.050   22.46   -9.33   -0.17   0.000   0.200   0.000    0.00
   2.100   23.08   -9.24    0.22   0.000   0.200   0.000    0.00
   2.150   24.01  -10.82   -0.25   0.000   0.200   0.000    0.00
   2.200   23.60   -8.15   -0.69   0.000   0.200   0.000    0.00
   2.250   22.96   -8.59   -2.16   0.000   0.200   0.000    0.00
   2.300   22.88  -11.71   -2.26   0.000   0.200   0.000    0.00
   2.350   22.79  -11.15   -1.51   0.000   0.200   0.000    0.00
   2.400   22.30   -9.56   -1.61   0.000   0.200   0.000    0.00
   2.450   22.65   -9.33   -2.58   0.000   0.200   0.000    0.00
   2.500   21.81   -6.41   -3.15   0.000   0.200   0.000    0.00
   2.550   22.07  -10.07   -3.68   0.000   0.200   0.000    0.00
   2.600   22.51   -9.34   -2.87   0.000   0.200   0.000    0.00
   2.650   21.68  -10.15   -2.26   0.000   0.200   0.000    0.00
   2.700   22.72   -7.77   -0.30   0.000   0.200   0.000    0.00
   2.750   22.93   -4.24   -0.27   0.000   0.200   0.000    0.00
   2.800   23.41   -2.09   -0.88   0.000   0.200   0.000    0.00
   2.850   23.82   -4.51   -0.67   0.000   0.200   0.000    0.00
   2.900   24.61   -3.89   -1.27   0.000   0.200   0.000    0.00
   2.950   24.80   -5.07    0.13   0.000   0.200   0.000    0.00
   3.000   25.41   -6.14   -1.14   0.000   0.200   0.000    0.00
   3.050   25.01   -4.26   -1.25   0.000   0.200   0.000    0.00
   3.100   25.25   -2.53    0.09   0.000   0.200   0.000    0.00
   3.150   24.94   -4.57   -0.08   0.000   0.200   0.000    0.00
   3.200   25.28   -4.70    0.33   0.000   0.200   0.000    0.00
   3.250   25.19   -1.85    0.62   0.000   0.200   0.000    0.00
   3.300   24.34   -1.96   -0.19   0.000   0.200   0.000    0.00
   3.350   24.18   -3.52    1.58   0.000   0.200   0.000    0.00
   3.400   25.02   -4.69    1.08   0.000   0.200   0.000    0.00
   3.450   25.35   -3.48   -0.16   0.000   0.200   0.000    0.00
   3.500   25.44   -3.38    0.69   0.000   0.200   0.000    0.00
   3.550   25.02   -4.28    0.30   0.000   0.200   0.000    0.00
   3.600   24.83   -4.94    0.86   0.000   0.200   0.000    0.00
   3.650   24.48   -6.92    1.48   0.000   0.200   0.000    0.00
   3.700   23.11   -6.90    0.44   0.000   0.200   0.000    0.00
   3.750   24.25   -7.89    1.24   0.000   0.200   0.000    0.00
   3.800   25.51   -8.09    0.93   0.000   0.200   0.000    0.00
   3.850   25.49   -6.19    0.39   0.000   0.200   0.000    0.00
   3.900   25.61   -6.95    0.16   0.000   0.200   0.000    0.00
   3.950   26.34   -7.37    0.69   0.000   0.200   0.000    0.00
   4.000   25.47   -7.95    0.43   0.000   0.200   0.000    0.00
   4.050   24.60   -8.18    0.97   0.000   0.200   0.000    0.00
   4.100   25.49  -11.88    3.02   0.000   0.200   0.000    0.00
   4.150   25.93  -15.00    2.48   0.000   0.200   0.000    0.00
   4.200   26.37  -16.29    1.73   0.000   0.200   0.000    0.00
   4.250   27.10  -16.39    2.07   0.000   0.200   0.000    0.00
   4.300   28.06  -16.94    1.49   0.000   0.200   0.000    0.00
   4.350   28.97  -15.01    1.57   0.000   0.200   0.000    0.00
   4.400   28.60  -14.98    2.07   0.000   0.200   0.000    0.00
   4.450   27.40  -14.60    1.85   0.000   0.200   0.000    0.00
   4.500   27.27  -11.28    1.87   0.000   0.200   0.000    0.00
   4.550   27.02   -8.51    1.35   0.000   0.200   0.000    0.00
   4.600   26.90   -7.64   -0.22   0.000   0.200   0.000    0.00
   4.650   28.36   -9.12   -0.75   0.000   0.200   0.000    0.00
   4.700   28.38  -10.02   -0.05   0.000   0.200   0.000    0.00
   4.750   28.26  -10.89   -0.18   0.000   0.200   0.000    0.00
   4.800   27.39   -9.25   -0.54   0.000   0.200   0.000    0.00
   4.850   26.59   -6.74    0.53   0.000   0.200   0.000    0.00
   4.900   27.48   -9.29    0.93   0.000   0.200   0.000    0.00
   4.950   27.27  -10.66    0.44   0.000   0.200   0.000    0.00
   5.000   26.22   -8.10    1.16   0.000   0.200   0.000    0.00
   5.050   25.94   -8.90    1.45   0.000   0.200   0.000    0.00
   5.100   26.40   -8.63    1.32   0.000   0.200   0.000    0.00
   5.150   26.97   -7.78    1.57   0.000   0.200   0.000    0.00
   5.200   27.03   -9.04    1.33   0.000   0.200   0.000    0.00
   5.250   28.64   -9.13    1.72   0.000   0.200   0.000    0.00
   5.300   28.88   -8.55    0.29   0.000   0.200   0.000    0.00
   5.350   27.40   -9.78    1.21   0.000   0.200   0.000    0.00
   5.400   27.28   -9.60    0.28   0.000   0.200   0.000    0.00
   5.450   27.50   -9.40    1.40   0.000   0.200   0.000    0.00
   5.500   26.95  -10.20    1.34   0.000   0.200   0.000    0.00
   5.550   26.21   -9.29    1.27   0.000   0.200   0.000    0.00
   5.600   26.13   -8.91    2.19   0.000   0.200   0.000    0.00
   5.650   25.51  -11.79    1.89   0.000   0.200   0.000    0.00
   5.700   24.63  -12.95    2.12   0.000   0.200   0.000    0.00
   5.750   24.40  -13.98    2.36   0.000   0.200   0.000    0.00
   5.800   25.08  -14.52    1.79   0.000   0.200   0.000    0.00
   5.850   25.50  -15.98    1.42   0.000   0.200   0.000    0.00
   5.900   24.87  -14.52    2.58   0.000   0.200   0.000    0.00
   5.950   25.03  -15.22    2.32   0.000   0.200   0.000    0.00
   6.000   25.40  -13.71    1.53   0.000   0.200   0.000    0.00
   6.050   25.10  -13.97    2.73   0.000   0.200   0.000    0.00
   6.100   25.58  -12.48    0.57   0.000   0.200   0.000    0.00
   6.150   25.86  -14.22    0.42   0.000   0.200   0.000    0.00
   6.200   25.74  -13.16    0.91   0.000   0.200   0.000    0.00
   6.250   25.80  -14.35    1.27   0.000   0.200   0.000    0.00
   6.300   24.81  -17.79    1.25   0.000   0.200   0.000    0.00
   6.350   24.49  -16.09    1.30   0.000   0.200   0.000    0.00
   6.400   25.52  -14.41    1.82   0.000   0.200   0.000    0.00
   6.450   25.66  -15.06    2.07   0.000   0.200   0.000    0.00
   6.500   26.04  -16.71    0.33   0.000   0.200   0.000    0.00
   6.550   25.67  -16.41   -0.48   0.000   0.200   0.000    0.00
   6.600   25.67  -15.36    0.36   0.000   0.200   0.000    0.00
   6.650   24.96  -11.11    0.20   0.000   0.200   0.000    0.00
   6.700   24.23   -7.81   -0.87   0.000   0.200   0.000    0.00
   6.750   25.16   -8.00   -1.93   0.000   0.200   0.000    0.00
   6.800   26.13   -6.22   -0.53   0.000   0.200   0.000    0.00
   6.850   27.35   -5.06   -1.12   0.000   0.200   0.000    0.00
   6.900   26.08   -5.55   -1.71   0.000   0.200   0.000    0.00
   6.950   25.90   -6.33   -1.77   0.000   0.200   0.000    0.00
   7.000   25.36   -7.86   -0.57   0.000   0.200   0.000    0.00
   7.050   24.99   -8.07   -0.89   0.000   0.200   0.000    0.00
   7.100   25.77   -7.20   -1.43   0.000   0.200   0.000    0.00
   7.150   25.45   -8.41   -0.71   0.000   0.200   0.000    0.00
   7.200   25.17   -6.23   -0.25   0.000   0.200   0.000    0.00
   7.250   25.32   -6.28   -0.64   0.000   0.200   0.000    0.00
   7.300   23.90   -4.01   -1.00   0.000   0.200   0.000    0.00
   7.350   23.32   -2.94   -1.41   0.000   0.200   0.000    0.00
   7.400   23.81   -2.96   -1.02   0.000   0.200   0.000    0.00
   7.450   24.94   -0.92   -0.80   0.000   0.200   0.000    0.00
   7.500   24.81   -4.39   -0.93   0.000   0.200   0.000    0.00
   7.550   24.75   -7.21   -1.56   0.000   0.200   0.000    0.00
   7.600   24.20   -6.07   -1.69   0.000   0.200   0.000    0.00
   7.650   23.81   -4.93   -0.41   0.000   0.200   0.000    0.00
   7.700   25.04   -8.14   -0.15   0.000   0.200   0.000    0.00
   7.750   24.50   -4.95    0.10   0.000   0.200   0.000    0.00
   7.800   24.25   -3.31    0.11   0.000   0.200   0.000    0.00
   7.850   24.51   -3.77    0.19   0.000   0.200   0.000    0.00
   7.900   24.46   -1.29   -0.07   0.000   0.200   0.000    0.00
   7.950   24.86    0.31    1.27   0.000   0.200   0.000    0.00
   8.000   24.74    2.11    1.63   0.000   0.200   0.000    0.00
   8.050   24.91    2.95    0.67   0.000   0.200   0.000    0.00
   8.100   24.20    0.17    0.33   0.000   0.200   0.000    0.00
   8.150   23.91    0.91    0.28   0.000   0.200   0.000    0.00
   8.200   24.37   -1.61    1.03   0.000   0.200   0.000    0.00
   8.250   24.88   -1.15   -1.00   0.000   0.200   0.000    0.00
   8.300   25.37    1.70   -1.31   0.000   0.200   0.000    0.00
   8.350   24.29    2.47   -0.86   0.000   0.200   0.000    0.00
   8.400   23.66    1.18   -0.80   0.000   0.200   0.000    0.00
   8.450   23.41   -0.48   -0.23   0.000   0.200   0.000    0.00
   8.500   23.55    0.40    0.00   0.000   0.200   0.000    0.00
   8.550   23.36   -3.80    0.02   0.000   0.200   0.000    0.00
   8.600   24.82   -0.31    1.09   0.000   0.200   0.000    0.00
   8.650   26.35   -0.09    2.14   0.000   0.200   0.000    0.00
   8.700   26.99   -4.56    1.08   0.000   0.200   0.000    0.00
   8.750   27.91   -4.62    0.52   0.000   0.200   0.000    0.00
   8.800   27.97   -4.13    0.66   0.000   0.200   0.000    0.00
   8.850   27.80   -3.75    1.58   0.000   0.200   0.000    0.00
   8.900   27.29   -5.03    2.95   0.000   0.200   0.000    0.00
   8.950   26.62   -2.99    2.07   0.000   0.200   0.000    0.00
   9.000   26.82   -3.90    2.10   0.000   0.200   0.000    0.00
   9.050   26.46   -4.09    2.57   0.000   0.200   0.000    0.00
   9.100   26.33   -4.43    2.03   0.000   0.200   0.000    0.00
   9.150   27.33   -3.48    2.48   0.000   0.200   0.000    0.00
   9.200   26.88   -2.69    2.32   0.000   0.200   0.000    0.00
   9.250   26.40   -4.50    2.14   0.000   0.200   0.000    0.00
   9.300   26.97   -3.01    1.76   0.000   0.200   0.000    0.00
   9.350   26.52   -3.68    1.74   0.000   0.200   0.000    0.00
   9.400   26.39   -0.97    1.19   0.000   0.200   0.000    0.00
   9.450   26.56    0.22   -0.04   0.000   0.200   0.000    0.00
   9.500   26.50    1.90   -0.19   0.000   0.200   0.000    0.00
   9.550   26.69    2.69   -0.39   0.000   0.200   0.000    0.00
   9.600   25.97    1.97   -0.69   0.000   0.200   0.000    0.00
   9.650   25.91    1.07   -1.01   0.000   0.200   0.000    0.00
   9.700   26.67    1.88   -0.80   0.000   0.200   0.000    0.00
   9.750   26.45   -0.10    0.01   0.000   0.200   0.000    0.00
   9.800   26.37    1.75    0.55   0.000   0.200   0.000    0.00
   9.850   27.51    1.54   -0.31   0.000   0.200   0.000    0.00
   9.900   26.31    0.64   -0.79   0.000   0.200   0.000    0.00
   9.950   25.87    0.97   -0.47   0.000   0.200   0.000    0.00
  10.000   25.30    2.92   -1.70   0.000   0.200   0.000    0.00
  10.050   25.77    2.04   -1.74   0.000   0.200   0.000    0.00
  10.100   26.41   -0.06   -1.67   0.000   0.200   0.000    0.00
  10.150   26.91   -0.61   -2.45   0.000   0.200   0.000    0.00
  10.200   26.03   -2.95   -1.50   0.000   0.200   0.000    0.00
  10.250   25.56   -3.60   -1.12   0.000   0.200   0.000    0.00
  10.300   25.28   -3.99   -1.36   0.000   0.200   0.000    0.00
  10.350   25.29   -4.14   -0.92   0.000   0.200   0.000    0.00
  10.400   24.91   -1.11   -1.22   0.000   0.200   0.000    0.00
  10.450   24.76    0.71   -0.91   0.000   0.200   0.000    0.00
  10.500   25.10    0.82   -1.47   0.000   0.200   0.000    0.00
  10.550   24.75   -0.65   -0.70   0.000   0.200   0.000    0.00
  10.600   23.92    1.24   -1.41   0.000   0.200   0.000    0.00
  10.650   22.76    1.67   -0.82   0.000   0.200   0.000    0.00
  10.700   22.54   -0.89   -0.93   0.000   0.200   0.000    0.00
  10.750   22.70   -1.08   -1.03   0.000   0.200   0.000    0.00
  10.800   22.59   -4.43   -0.96   0.000   0.200   0.000    0.00
  10.850   22.41   -1.51   -0.82   0.000   0.200   0.000    0.00
  10.900   22.16    0.74   -0.95   0.000   0.200   0.000    0.00
  10.950   21.95   -1.29   -1.63   0.000   0.200   0.000    0.00
  11.000   22.24   -5.24   -1.05   0.000   0.200   0.000    0.00
  11.050   22.20   -3.26   -1.26   0.000   0.200   0.000    0.00
  11.100   20.86   -5.22    0.06   0.000   0.200   0.000    0.00
  11.150   20.97   -8.17    0.22   0.000   0.200   0.000    0.00
  11.200   20.87   -6.69   -1.91   0.000   0.200   0.000    0.00
  11.250   20.81   -5.59   -0.71   0.000   0.200   0.000    0.00
  11.300   21.14   -3.91    0.56   0.000   0.200   0.000    0.00
  11.350   21.90   -3.30   -0.26   0.000   0.200   0.000    0.00
  11.400   22.03   -0.49    0.36   0.000   0.200   0.000    0.00
  11.450   20.37   -2.53    0.16   0.000   0.200   0.000    0.00
  11.500   19.80   -2.25    0.57   0.000   0.200   0.000    0.00
  11.550   20.74   -2.76    0.70   0.000   0.200   0.000    0.00
  11.600   21.31   -5.16    0.98   0.000   0.200   0.000    0.00
  11.650   21.03   -3.93    0.81   0.000   0.200   0.000    0.00
  11.700   22.15   -2.40    1.00   0.000   0.200   0.000    0.00
  11.750   22.18    0.16    0.48   0.000   0.200   0.000    0.00
  11.800   21.59   -0.74   -0.60   0.000   0.200   0.000    0.00
  11.850   20.96    0.40   -1.15   0.000   0.200   0.000    0.00
  11.900   20.73    1.24    0.14   0.000   0.200   0.000    0.00
  11.950   19.40   -0.14    0.62   0.000   0.200   0.000    0.00
  12.000   20.48    1.61   -0.87   0.000   0.200   0.000    0.00
  12.050   20.95    0.42   -0.87   0.000   0.200   0.000    0.00
  12.100   21.22    0.40   -1.01   0.000   0.200   0.000    0.00
  12.150   20.75   -0.38   -1.14   0.000   0.200   0.000    0.00
  12.200   21.21   -2.65   -0.71   0.000   0.200   0.000    0.00
  12.250   21.43    0.62   -0.75   0.000   0.200   0.000    0.00
  12.300   23.29   -1.22   -1.19   0.000   0.200   0.000    0.00
  12.350   23.40   -2.37   -1.59   0.000   0.200   0.000    0.00
  12.400   23.36   -0.09   -1.57   0.000   0.200   0.000    0.00
  12.450   23.32    0.01   -1.32   0.000   0.200   0.000    0.00
  12.500   23.49    1.14   -0.42   0.000   0.200   0.000    0.00
  12.550   22.92    1.44    0.39   0.000   0.200   0.000    0.00
  12.600   21.84   -1.12    1.85   0.000   0.200   0.000    0.00
  12.650   21.82   -4.22    1.70   0.000   0.200   0.000    0.00
  12.700   21.28   -5.02    1.48   0.000   0.200   0.000    0.00
  12.750   21.66   -3.62    1.08   0.000   0.200   0.000    0.00
  12.800   21.07   -4.63    2.13   0.000   0.200   0.000    0.00
  12.850   21.08   -4.12    2.49   0.000   0.200   0.000    0.00
  12.900   20.06   -6.23    2.35   0.000   0.200   0.000    0.00
  12.950   20.40   -7.84    1.83   0.000   0.200   0.000    0.00
  13.000   21.70   -6.83    1.06   0.000   0.200   0.000    0.00
  13.050   22.76   -7.18    0.65   0.000   0.200   0.000    0.00
  13.100   22.68   -5.01   -0.93   0.000   0.200   0.000    0.00
  13.150   22.16   -3.82   -0.13   0.000   0.200   0.000    0.00
  13.200   20.93   -2.76    1.05   0.000   0.200   0.000    0.00
  13.250   21.69   -2.23    2.38   0.000   0.200   0.000    0.00
  13.300   23.10   -2.90    1.37   0.000   0.200   0.000    0.00
  13.350   22.90   -1.38    1.11   0.000   0.200   0.000    0.00
  13.400   23.55    1.61    1.76   0.000   0.200   0.000    0.00
  13.450   23.69    1.23    1.72   0.000   0.200   0.000    0.00
  13.500   22.98   -0.56    2.07   0.000   0.200   0.000    0.00
  13.550   21.50   -0.73    0.49   0.000   0.200   0.000    0.00
  13.600   22.24   -3.36   -0.18   0.000   0.200   0.000    0.00
  13.650   22.05   -4.94    0.46   0.000   0.200   0.000    0.00
  13.700   21.40   -8.02    0.51   0.000   0.200   0.000    0.00
  13.750   21.44  -10.16    0.82   0.000   0.200   0.000    0.00
  13.800   21.13   -6.39   -0.63   0.000   0.200   0.000    0.00
  13.850   20.57   -6.36   -0.30   0.000   0.200   0.000    0.00
  13.900   20.22   -7.15   -0.08   0.000   0.200   0.000    0.00
  13.950   20.67   -8.40   -0.56   0.000   0.200   0.000    0.00
  14.000   21.19   -8.41   -0.23   0.000   0.200   0.000    0.00
  14.050   21.21   -8.46   -0.89   0.000   0.200   0.000    0.00
  14.100   20.52   -4.67   -1.07   0.000   0.200   0.000    0.00
  14.150   20.78   -2.49   -1.14   0.000   0.200   0.000    0.00
  14.200   20.81   -2.10    0.35   0.000   0.200   0.000    0.00
  14.250   20.52    0.31   -0.11   0.000   0.200   0.000    0.00
  14.300   21.39    1.65    0.61   0.000   0.200   0.000    0.00
  14.350   22.20    0.85    0.12   0.000   0.200   0.000    0.00
  14.400   22.40   -0.62   -0.35   0.000   0.200   0.000    0.00
  14.450   22.80    2.88    0.58   0.000   0.200   0.000    0.00
  14.500   22.30    5.53    0.85   0.000   0.200   0.000    0.00
  14.550   22.69    5.80    0.19   0.000   0.200   0.000    0.00
  14.600   22.78    4.09    0.53   0.000   0.200   0.000    0.00
  14.650   22.63    4.77    0.20   0.000   0.200   0.000    0.00
  14.700   22.88    1.09    0.68   0.000   0.200   0.000    0.00
  14.750   22.81    1.51    0.51   0.000   0.200   0.000    0.00
  14.800   22.87   -0.74    0.17   0.000   0.200   0.000    0.00
  14.850   23.58   -1.65    0.17   0.000   0.200   0.000    0.00
  14.900   23.18   -3.08    0.35   0.000   0.200   0.000    0.00
  14.950   23.29   -2.09    0.67   0.000   0.200   0.000    0.00
  15.000   22.01   -3.32    0.82   0.000   0.200   0.000    0.00
  15.050   22.30    0.08   -0.21   0.000   0.200   0.000    0.00
  15.100   22.57   -1.79   -0.80   0.000   0.200   0.000    0.00
  15.150   22.82   -2.73   -1.78   0.000   0.200   0.000    0.00
  15.200   22.67   -1.42   -1.85   0.000   0.200   0.000    0.00
  15.250   22.28   -2.33   -1.50   0.000   0.200   0.000    0.00
  15.300   22.08   -0.25   -0.81   0.000   0.200   0.000    0.00
  15.350   20.87   -2.85   -1.10   0.000   0.200   0.000    0.00
  15.400   21.71   -4.45   -1.14   0.000   0.200   0.000    0.00
  15.450   22.29   -2.19   -0.62   0.000   0.200   0.000    0.00
  15.500   21.59   -1.00    0.42   0.000   0.200   0.000    0.00
  15.550   21.55   -4.31   -0.06   0.000   0.200   0.000    0.00
  15.600   21.60   -1.66   -0.44   0.000   0.200   0.000    0.00
  15.650   22.44   -2.92   -0.58   0.000   0.200   0.000    0.00
  15.700   22.56    0.38   -0.58   0.000   0.200   0.000    0.00
  15.750   22.82    1.98   -0.84   0.000   0.200   0.000    0.00
  15.800   22.42    2.48   -0.95   0.000   0.200   0.000    0.00
  15.850   21.64    4.56   -1.55   0.000   0.200   0.000    0.00
  15.900   21.79    4.10   -1.42   0.000   0.200   0.000    0.00
  15.950   22.60    6.75   -0.94   0.000   0.200   0.000    0.00
  16.000   22.91    7.21   -0.92   0.000   0.200   0.000    0.00
  16.050   22.58    5.41   -0.82   0.000   0.200   0.000    0.00
  16.100   22.11    6.25   -0.67   0.000   0.200   0.000    0.00
  16.150   22.66    3.91    0.61   0.000   0.200   0.000    0.00
  16.200   23.39    0.53    0.16   0.000   0.200   0.000    0.00
  16.250   24.08    1.49   -1.06   0.000   0.200   0.000    0.00
  16.300   23.71    0.22   -0.99   0.000   0.200   0.000    0.00
  16.350   24.30   -0.98   -1.54   0.000   0.200   0.000    0.00
  16.400   24.26   -3.84   -1.98   0.000   0.200   0.000    0.00
  16.450   24.87   -4.97   -1.20   0.000   0.200   0.000    0.00
  16.500   24.92   -4.36   -0.96   0.000   0.200   0.000    0.00
  16.550   25.47   -1.99   -1.13   0.000   0.200   0.000    0.00
  16.600   26.03   -3.60   -1.30   0.000   0.200   0.000    0.00
  16.650   25.50   -3.24   -1.58   0.000   0.200   0.000    0.00
  16.700   25.03   -2.38   -2.54   0.000   0.200   0.000    0.00
  16.750   24.53   -2.21   -2.72   0.000   0.200   0.000    0.00
  16.800   23.50   -2.74   -1.82   0.000   0.200   0.000    0.00
  16.850   23.58   -2.17   -2.99   0.000   0.200   0.000    0.00
  16.900   23.92   -3.73   -3.25   0.000   0.200   0.000    0.00
  16.950   24.21   -2.62   -2.30   0.000   0.200   0.000    0.00
  17.000   25.14    0.40   -2.77   0.000   0.200   0.000    0.00
  17.050   24.54    0.32   -3.49   0.000   0.200   0.000    0.00
  17.100   24.22    0.80   -2.82   0.000   0.200   0.000    0.00
  17.150   24.72    2.79   -1.71   0.000   0.200   0.000    0.00
  17.200   24.99    1.27   -1.57   0.000   0.200   0.000    0.00
  17.250   24.55   -1.48   -1.37   0.000   0.200   0.000    0.00
  17.300   23.52   -0.97   -0.51   0.000   0.200   0.000    0.00
  17.350   22.82    0.30    0.22   0.000   0.200   0.000    0.00
  17.400   22.75    1.72    1.14   0.000   0.200   0.000    0.00
  17.450   23.43    1.22    1.46   0.000   0.200   0.000    0.00
  17.500   23.27    2.95    0.60   0.000   0.200   0.000    0.00
  17.550   23.81    2.65    0.19   0.000   0.200   0.000    0.00
  17.600   24.16    5.70    0.26   0.000   0.200   0.000    0.00
  17.650   23.65    9.39   -0.02   0.000   0.200   0.000    0.00
  17.700   23.66   10.28   -0.60   0.000   0.200   0.000    0.00
  17.750   23.72   10.19   -0.72   0.000   0.200   0.000    0.00
  17.800   23.91    8.23   -0.80   0.000   0.200   0.000    0.00
  17.850   23.50    6.48    0.15   0.000   0.200   0.000    0.00
  17.900   23.83    4.88    1.26   0.000   0.200   0.000    0.00
  17.950   22.87    5.25    0.68   0.000   0.200   0.000    0.00
  18.000   23.19    8.88    0.78   0.000   0.200   0.000    0.00
  18.050   23.27    9.76    0.95   0.000   0.200   0.000    0.00
  18.100   22.54    9.78    0.97   0.000   0.200   0.000    0.00
  18.150   23.98   11.23    0.55   0.000   0.200   0.000    0.00
  18.200   23.88    9.76    0.11   0.000   0.200   0.000    0.00
  18.250   24.62    7.81   -0.78   0.000   0.200   0.000    0.00
  18.300   25.72    9.37    0.01   0.000   0.200   0.000    0.00
  18.350   24.66   10.67   -0.46   0.000   0.200   0.000    0.00
  18.400   24.56    8.04   -1.28   0.000   0.200   0.000    0.00
  18.450   24.07    4.88   -1.52   0.000   0.200   0.000    0.00
  18.500   23.94    7.78   -0.61   0.000   0.200   0.000    0.00
  18.550   24.28    6.53   -0.73   0.000   0.200   0.000    0.00
  18.600   24.56    7.19   -1.38   0.000   0.200   0.000    0.00
  18.650   24.71    7.09   -0.43   0.000   0.200   0.000    0.00
  18.700   24.26    5.07    0.72   0.000   0.200   0.000    0.00
  18.750   23.91    4.35    0.25   0.000   0.200   0.000    0.00
  18.800   23.31    5.96    0.14   0.000   0.200   0.000    0.00
  18.850   23.50    3.18    1.58   0.000   0.200   0.000    0.00
  18.900   24.52    4.66    1.47   0.000   0.200   0.000    0.00
  18.950   24.68    7.75    0.89   0.000   0.200   0.000    0.00
  19.000   24.73    6.48    0.98   0.000   0.200   0.000    0.00
  19.050   24.62    7.02    1.03   0.000   0.200   0.000    0.00
  19.100   24.24    7.87    2.20   0.000   0.200   0.000    0.00
  19.150   24.88    4.69    1.39   0.000   0.200   0.000    0.00
  19.200   25.33    5.82    0.80   0.000   0.200   0.000    0.00
  19.250   25.64    4.40    0.41   0.000   0.200   0.000    0.00
  19.300   25.41    4.60    0.35   0.000   0.200   0.000    0.00
  19.350   24.57    3.29   -0.01   0.000   0.200   0.000    0.00
  19.400   24.57   -1.42   -0.55   0.000   0.200   0.000    0.00
  19.450   23.83    0.93   -1.09   0.000   0.200   0.000    0.00
  19.500   22.90    1.30   -1.73   0.000   0.200   0.000    0.00
  19.550   23.52   -0.95   -1.88   0.000   0.200   0.000    0.00
  19.600   23.60   -0.82   -1.13   0.000   0.200   0.000    0.00
  19.650   24.48   -2.01   -1.35   0.000   0.200   0.000    0.00
  19.700   23.75   -1.17   -1.03   0.000   0.200   0.000    0.00
  19.750   22.80    1.01    0.50   0.000   0.200   0.000    0.00
  19.800   22.24   -0.68    0.85   0.000   0.200   0.000    0.00
  19.850   22.36   -0.11    0.74   0.000   0.200   0.000    0.00
  19.900   22.01    0.52    0.66   0.000   0.200   0.000    0.00
  19.950   22.35    1.60    1.22   0.000   0.200   0.000    0.00
  20.000   22.01    1.56   -0.11   0.000   0.200   0.000    0.00
  20.050   22.70   -1.13    0.52   0.000   0.200   0.000    0.00
  20.100   22.49   -1.82    1.79   0.000   0.200   0.000    0.00
  20.150   22.28   -0.47    1.80   0.000   0.200   0.000    0.00
  20.200   21.86    3.43    3.49   0.000   0.200   0.000    0.00
  20.250   21.99    2.41    3.92   0.000   0.200   0.000    0.00
  20.300   22.06   -0.35    2.55   0.000   0.200   0.000    0.00
  20.350   22.18    3.07    1.91   0.000   0.200   0.000    0.00
  20.400   21.91    2.85    1.52   0.000   0.200   0.000    0.00
  20.450   20.63    4.20    2.38   0.000   0.200   0.000    0.00
  20.500   20.22    3.96    2.26   0.000   0.200   0.000    0.00
  20.550   20.03    0.33    2.42   0.000   0.200   0.000    0.00
  20.600   19.11   -2.14    1.75   0.000   0.200   0.000    0.00
  20.650   18.94   -1.69    2.08   0.000   0.200   0.000    0.00
  20.700   19.77   -2.44    2.08   0.000   0.200   0.000    0.00
  20.750   19.83   -4.02    2.23   0.000   0.200   0.000    0.00
  20.800   20.45   -3.75    1.87   0.000   0.200   0.000    0.00
  20.850   20.94   -4.16    0.94   0.000   0.200   0.000    0.00
  20.900   20.74   -7.39    0.61   0.000   0.200   0.000    0.00
  20.950   21.45   -6.66    0.81   0.000   0.200   0.000    0.00
  21.000   22.15   -3.87    1.87   0.000   0.200   0.000    0.00
  21.050   23.61   -3.61    1.69   0.000   0.200   0.000    0.00
  21.100   22.45   -3.27    0.40   0.000   0.200   0.000    0.00
  21.150   21.93   -0.67    0.30   0.000   0.200   0.000    0.00
  21.200   21.98    0.10    0.71   0.000   0.200   0.000    0.00
  21.250   22.34   -0.71    0.57   0.000   0.200   0.000    0.00
  21.300   23.12   -2.39    0.36   0.000   0.200   0.000    0.00
  21.350   23.19   -2.81   -0.36   0.000   0.200   0.000    0.00
  21.400   23.02    1.10   -0.82   0.000   0.200   0.000    0.00
  21.450   23.37   -2.17   -2.25   0.000   0.200   0.000    0.00
  21.500   23.22   -2.70   -0.85   0.000   0.200   0.000    0.00
  21.550   23.16   -0.79   -1.38   0.000   0.200   0.000    0.00
  21.600   23.15    0.43   -0.93   0.000   0.200   0.000    0.00
  21.650   22.75   -0.70   -1.33   0.000   0.200   0.000    0.00
  21.700   21.95   -2.76   -0.83   0.000   0.200   0.000    0.00
  21.750   21.46   -4.86    0.00   0.000   0.200   0.000    0.00
  21.800   21.30   -6.33    0.49   0.000   0.200   0.000    0.00
  21.850   20.90   -4.71    0.30   0.000   0.200   0.000    0.00
  21.900   20.30   -3.74    0.31   0.000   0.200   0.000    0.00
  21.950   21.28   -2.61   -0.54   0.000   0.200   0.000    0.00
  22.000   21.20   -0.31    1.01   0.000   0.200   0.000    0.00
  22.050   21.54    1.91    0.41   0.000   0.200   0.000    0.00
  22.100   22.36    1.79    0.94   0.000   0.200   0.000    0.00
  22.150   22.66    1.60    0.21   0.000   0.200   0.000    0.00
  22.200   23.13   -0.14    0.15   0.000   0.200   0.000    0.00
  22.250   22.59    0.72    0.29   0.000   0.200   0.000    0.00
  22.300   22.13    1.43   -0.49   0.000   0.200   0.000    0.00
  22.350   21.95    1.07   -0.45   0.000   0.200   0.000    0.00