! This hub-height wind-speed file was generated by TurbSim (v1.06.00, 21-Sep-2012) on 16-Jun-2018 at 18:38:30.
!
! The requested statistics for this data were:
!    Mean Total Wind Speed =    9.000 m/s
!    Turbulence Intensity  =   19.211%
!
!   Time  HorSpd  WndDir  VerSpd  HorShr  VerShr  LnVShr  GstSpd
!  (sec)   (m/s)   (deg)   (m/s)     (-)     (-)     (-)   (m/s)
   0.000    7.41    6.09    0.37   0.000   0.200   0.000    0.00
   0.050    7.55    7.01   -0.13   0.000   0.200   0.000    0.00
   0.100    7.63    7.47   -0.52   0.000   0.200   0.000    0.00
   0.150    8.20    5.98   -0.41   0.000   0.200   0.000    0.00
   0.200    8.49    2.46   -0.28   0.000   0.200   0.000    0.00
   0.250    8.08    3.11   -0.15   0.000   0.200   0.000    0.00
   0.300    7.82    3.39   -0.18   0.000   0.200   0.000    0.00
   0.350    7.77    0.90   -0.21   0.000   0.200   0.000    0.00
   0.400    7.32    1.43   -0.36   0.000   0.200   0.000    0.00
   0.450    7.63    2.91   -0.27   0.000   0.200   0.000    0.00
   0.500    7.31    4.46   -0.09   0.000   0.200   0.000    0.00
   0.550    7.11    0.35    0.25   0.000   0.200   0.000    0.00
   0.600    7.66   -1.14    0.05   0.000   0.200   0.000    0.00
   0.650    7.48    1.72   -0.66   0.000   0.200   0.000    0.00
   0.700    7.16    1.64   -0.55   0.000   0.200   0.000    0.00
   0.750    7.47    1.64   -0.76   0.000   0.200   0.000    0.00
   0.800    7.55    4.26   -0.45   0.000   0.200   0.000    0.00
   0.850    7.43    6.16   -0.29   0.000   0.200   0.000    0.00
   0.900    7.25    6.33   -0.54   0.000   0.200   0.000    0.00
   0.950    7.88    4.24   -0.87   0.000   0.200   0.000    0.00
   1.000    8.30    2.67   -0.93   0.000   0.200   0.000    0.00
   1.050    8.26    1.14   -0.81   0.000   0.200   0.000    0.00
   1.100    7.99    1.08   -0.78   0.000   0.200   0.000    0.00
   1.150    8.16   -2.57   -0.68   0.000   0.200   0.000    0.00
   1.200    7.91   -2.58   -0.54   0.000   0.200   0.000    0.00
   1.250    7.84   -4.86   -0.11   0.000   0.200   0.000    0.00
   1.300    8.14   -0.12   -0.28   0.000   0.200   0.000    0.00
   1.350    8.27   -0.96   -0.66   0.000   0.200   0.000    0.00
   1.400    8.07   -1.29   -0.48   0.000   0.200   0.000    0.00
   1.450    8.05   -4.48   -0.79   0.000   0.200   0.000    0.00
   1.500    7.71   -5.07   -0.91   0.000   0.200   0.000    0.00
   1.550    8.07   -2.54   -0.86   0.000   0.200   0.000    0.00
   1.600    7.97   -3.24   -0.70   0.000   0.200   0.000    0.00
   1.650    8.33   -5.47   -0.81   0.000   0.200   0.000    0.00
   1.700    8.21   -9.76   -1.29   0.000   0.200   0.000    0.00
   1.750    7.88   -9.97   -0.88   0.000   0.200   0.000    0.00
   1.800    8.16   -8.08   -0.89   0.000   0.200   0.000    0.00
   1.850    8.15   -4.83   -0.69   0.000   0.200   0.000    0.00
   1.900    7.84   -3.07   -0.70   0.000   0.200   0.000    0.00
   1.950    7.97   -4.14   -0.28   0.000   0.200   0.000    0.00
   2.000    7.59   -3.47    0.19   0.000   0.200   0.000    0.00
   2.050    7.82   -1.14    0.16   0.000   0.200   0.000    0.00
   2.100    7.68   -5.70   -0.26   0.000   0.200   0.000    0.00
   2.150    7.50   -5.09   -0.18   0.000   0.200   0.000    0.00
   2.200    7.98   -3.23   -0.20   0.000   0.200   0.000    0.00
   2.250    8.16   -4.33   -0.27   0.000   0.200   0.000    0.00
   2.300    8.28   -3.92   -0.33   0.000   0.200   0.000    0.00
   2.350    8.37   -6.07   -0.74   0.000   0.200   0.000    0.00
   2.400    8.55   -7.57   -0.55   0.000   0.200   0.000    0.00
   2.450    8.69   -7.11   -0.78   0.000   0.200   0.000    0.00
   2.500    8.36   -6.91   -1.04   0.000   0.200   0.000    0.00
   2.550    8.51   -5.51   -1.34   0.000   0.200   0.000    0.00
   2.600    8.62   -7.74   -1.11   0.000   0.200   0.000    0.00
   2.650    8.97   -7.24   -1.30   0.000   0.200   0.000    0.00
   2.700    9.11   -4.57   -0.80   0.000   0.200   0.000    0.00
   2.750    9.10   -5.49   -0.72   0.000   0.200   0.000    0.00
   2.800    9.18   -7.66   -0.31   0.000   0.200   0.000    0.00
   2.850    9.13   -7.08   -0.11   0.000   0.200   0.000    0.00
   2.900    8.45   -9.60   -0.01   0.000   0.200   0.000    0.00
   2.950    8.10   -6.86   -0.32   0.000   0.200   0.000    0.00
   3.000    8.46   -3.57    0.23   0.000   0.200   0.000    0.00
   3.050    8.58   -4.29    0.08   0.000   0.200   0.000    0.00
   3.100    8.71   -3.22   -0.32   0.000   0.200   0.000    0.00
   3.150    8.94   -4.46   -0.79   0.000   0.200   0.000    0.00
   3.200    8.65   -6.19   -0.94   0.000   0.200   0.000    0.00
   3.250    8.90   -7.59   -1.38   0.000   0.200   0.000    0.00
   3.300    8.93   -6.23   -1.46   0.000   0.200   0.000    0.00
   3.350    9.00   -4.74   -1.09   0.000   0.200   0.000    0.00
   3.400    9.18   -5.10   -0.82   0.000   0.200   0.000    0.00
   3.450    8.87   -3.89   -0.79   0.000   0.200   0.000    0.00
   3.500    8.67   -5.00   -1.05   0.000   0.200   0.000    0.00
   3.550    8.69   -0.99   -1.21   0.000   0.200   0.000    0.00
   3.600    8.24    1.62   -1.21   0.000   0.200   0.000    0.00
   3.650    8.18    1.28   -1.23   0.000   0.200   0.000    0.00
   3.700    8.39   -3.75   -0.97   0.000   0.200   0.000    0.00
   3.750    8.51   -3.62   -0.89   0.000   0.200   0.000    0.00
   3.800    8.18   -4.89   -0.90   0.000   0.200   0.000    0.00
   3.850    8.47   -5.13   -0.62   0.000   0.200   0.000    0.00
   3.900    8.97   -3.90   -0.32   0.000   0.200   0.000    0.00
   3.950    9.17   -2.15   -0.43   0.000   0.200   0.000    0.00
   4.000    8.98   -3.30   -0.94   0.000   0.200   0.000    0.00
   4.050    9.03   -1.28   -1.01   0.000   0.200   0.000    0.00
   4.100    8.83    1.55   -0.97   0.000   0.200   0.000    0.00
   4.150    9.01    2.00   -0.87   0.000   0.200   0.000    0.00
   4.200    9.58    0.89   -0.69   0.000   0.200   0.000    0.00
   4.250    9.11    4.34   -0.94   0.000   0.200   0.000    0.00
   4.300    9.22    1.39   -0.67   0.000   0.200   0.000    0.00
   4.350    8.89    3.69   -0.97   0.000   0.200   0.000    0.00
   4.400    8.86    4.56   -0.65   0.000   0.200   0.000    0.00
   4.450    8.99    4.68   -0.64   0.000   0.200   0.000    0.00
   4.500    8.44    9.05   -0.36   0.000   0.200   0.000    0.00
   4.550    8.34    6.75   -0.32   0.000   0.200   0.000    0.00
   4.600    8.19    7.16   -0.53   0.000   0.200   0.000    0.00
   4.650    8.29    9.35   -0.44   0.000   0.200   0.000    0.00
   4.700    8.68    8.05   -0.59   0.000   0.200   0.000    0.00
   4.750    8.92    8.07   -0.39   0.000   0.200   0.000    0.00
   4.800    9.05    7.79   -0.06   0.000   0.200   0.000    0.00
   4.850    9.22    5.06   -0.29   0.000   0.200   0.000    0.00
   4.900    9.27    2.02   -0.51   0.000   0.200   0.000    0.00
   4.950    9.29    1.13   -0.33   0.000   0.200   0.000    0.00
   5.000    9.18    1.55   -0.68   0.000   0.200   0.000    0.00
   5.050    8.88    3.61   -0.41   0.000   0.200   0.000    0.00
   5.100    8.76    5.16   -0.11   0.000   0.200   0.000    0.00
   5.150    9.17    2.99   -0.43   0.000   0.200   0.000    0.00
   5.200    8.76    3.99   -0.48   0.000   0.200   0.000    0.00
   5.250    8.81    2.26    0.11   0.000   0.200   0.000    0.00
   5.300    8.84    0.88    0.57   0.000   0.200   0.000    0.00
   5.350    9.10    3.33    0.10   0.000   0.200   0.000    0.00
   5.400    9.23    4.42   -0.38   0.000   0.200   0.000    0.00
   5.450    9.09    4.78   -0.06   0.000   0.200   0.000    0.00
   5.500    9.26    6.89    0.03   0.000   0.200   0.000    0.00
   5.550    9.06    7.49    0.11   0.000   0.200   0.000    0.00
   5.600    8.75    9.54   -0.08   0.000   0.200   0.000    0.00
   5.650    8.78   10.98   -0.27   0.000   0.200   0.000    0.00
   5.700    8.54   10.18   -0.30   0.000   0.200   0.000    0.00
   5.750    8.23    7.46   -0.79   0.000   0.200   0.000    0.00
   5.800    7.69   11.88   -0.77   0.000   0.200   0.000    0.00
   5.850    8.05   13.76   -0.96   0.000   0.200   0.000    0.00
   5.900    7.93   13.05   -1.34   0.000   0.200   0.000    0.00
   5.950    8.19   11.81   -1.42   0.000   0.200   0.000    0.00
   6.000    8.75   12.02   -1.88   0.000   0.200   0.000    0.00
   6.050    8.83    7.71   -2.15   0.000   0.200   0.000    0.00
   6.100    8.86    9.04   -1.98   0.000   0.200   0.000    0.00
   6.150    8.98   13.84   -1.72   0.000   0.200   0.000    0.00
   6.200    9.12   15.25   -1.10   0.000   0.200   0.000    0.00
   6.250    9.27   16.54   -1.48   0.000   0.200   0.000    0.00
   6.300    9.32   15.63   -1.26   0.000   0.200   0.000    0.00
   6.350    8.86   15.81   -1.30   0.000   0.200   0.000    0.00
   6.400    8.27   18.01   -0.67   0.000   0.200   0.000    0.00
   6.450    8.23   19.96   -0.33   0.000   0.200   0.000    0.00
   6.500    8.76   18.32   -0.56   0.000   0.200   0.000    0.00
   6.550    9.08   17.99   -0.38   0.000   0.200   0.000    0.00
   6.600    9.20   18.69   -0.65   0.000   0.200   0.000    0.00
   6.650    9.27   18.04   -1.15   0.000   0.200   0.000    0.00
   6.700    9.08   19.87   -0.90   0.000   0.200   0.000    0.00
   6.750    9.23   19.37   -0.76   0.000   0.200   0.000    0.00
   6.800    9.33   16.74   -1.09   0.000   0.200   0.000    0.00
   6.850    9.47   18.05   -1.24   0.000   0.200   0.000    0.00
   6.900    9.61   19.27   -1.28   0.000   0.200   0.000    0.00
   6.950    9.64   20.06   -1.14   0.000   0.200   0.000    0.00
   7.000    9.42   21.71   -1.25   0.000   0.200   0.000    0.00
   7.050    9.47   20.42   -1.53   0.000   0.200   0.000    0.00
   7.100    9.20   18.76   -1.21   0.000   0.200   0.000    0.00
   7.150    9.28   16.70   -0.92   0.000   0.200   0.000    0.00
   7.200    9.15   15.90   -1.05   0.000   0.200   0.000    0.00
   7.250    9.37   14.89   -0.96   0.000   0.200   0.000    0.00
   7.300    9.50   15.94   -1.05   0.000   0.200   0.000    0.00
   7.350    9.86   17.35   -0.63   0.000   0.200   0.000    0.00
   7.400    9.59   18.55   -0.76   0.000   0.200   0.000    0.00
   7.450    9.53   18.68   -1.08   0.000   0.200   0.000    0.00
   7.500    9.88   18.21   -0.83   0.000   0.200   0.000    0.00
   7.550    9.51   15.58   -0.62   0.000   0.200   0.000    0.00
   7.600    9.45   14.81   -0.80   0.000   0.200   0.000    0.00
   7.650    9.34   14.55   -0.93   0.000   0.200   0.000    0.00
   7.700    9.41   14.47   -0.79   0.000   0.200   0.000    0.00
   7.750    9.25   14.70   -0.43   0.000   0.200   0.000    0.00
   7.800    9.28   14.29   -0.67   0.000   0.200   0.000    0.00
   7.850    9.69   16.87   -0.76   0.000   0.200   0.000    0.00
   7.900    9.84   16.40   -0.67   0.000   0.200   0.000    0.00
   7.950    9.43   16.54   -0.32   0.000   0.200   0.000    0.00
   8.000    9.37   17.06   -0.70   0.000   0.200   0.000    0.00
   8.050    9.53   13.98   -1.11   0.000   0.200   0.000    0.00
   8.100    9.64   12.07   -1.23   0.000   0.200   0.000    0.00
   8.150    9.43   12.17   -0.73   0.000   0.200   0.000    0.00
   8.200    9.50   10.36   -0.97   0.000   0.200   0.000    0.00
   8.250    9.69    9.04   -0.78   0.000   0.200   0.000    0.00
   8.300    9.59    7.38   -0.70   0.000   0.200   0.000    0.00
   8.350    9.96    3.92   -0.69   0.000   0.200   0.000    0.00
   8.400    9.62    6.51   -0.73   0.000   0.200   0.000    0.00
   8.450    9.38    7.62   -0.72   0.000   0.200   0.000    0.00
   8.500    9.39    5.73   -0.68   0.000   0.200   0.000    0.00
   8.550    9.33    7.48   -0.98   0.000   0.200   0.000    0.00
   8.600    9.33    4.75   -0.84   0.000   0.200   0.000    0.00
   8.650    9.74    2.26   -0.92   0.000   0.200   0.000    0.00
   8.700    9.67    2.24   -0.67   0.000   0.200   0.000    0.00
   8.750   10.04    2.26   -0.81   0.000   0.200   0.000    0.00
   8.800    9.89    1.36   -0.77   0.000   0.200   0.000    0.00
   8.850   10.23    3.42   -0.81   0.000   0.200   0.000    0.00
   8.900   10.04    7.43   -0.62   0.000   0.200   0.000    0.00
   8.950   10.09    5.44   -0.31   0.000   0.200   0.000    0.00
   9.000   10.61    8.03   -0.31   0.000   0.200   0.000    0.00
   9.050   10.83    4.91   -0.37   0.000   0.200   0.000    0.00
   9.100   10.69    4.72   -0.66   0.000   0.200   0.000    0.00
   9.150   10.42    5.79   -0.74   0.000   0.200   0.000    0.00
   9.200   10.50    3.36   -0.68   0.000   0.200   0.000    0.00
   9.250   10.89    3.23   -0.78   0.000   0.200   0.000    0.00
   9.300   10.82    2.88   -0.37   0.000   0.200   0.000    0.00
   9.350   11.02    2.75   -0.46   0.000   0.200   0.000    0.00
   9.400   11.00    0.70   -0.43   0.000   0.200   0.000    0.00
   9.450   10.73    0.71   -0.11   0.000   0.200   0.000    0.00
   9.500   10.92   -1.29    0.20   0.000   0.200   0.000    0.00
   9.550   11.06    0.50    0.33   0.000   0.200   0.000    0.00
   9.600   10.23    2.96    0.29   0.000   0.200   0.000    0.00
   9.650    9.82    4.01    0.69   0.000   0.200   0.000    0.00
   9.700   10.10    4.69    0.70   0.000   0.200   0.000    0.00
   9.750    9.90    7.65    0.53   0.000   0.200   0.000    0.00
   9.800    9.96    7.18    0.74   0.000   0.200   0.000    0.00
   9.850    9.83    7.38    0.23   0.000   0.200   0.000    0.00
   9.900    9.58    7.59   -0.15   0.000   0.200   0.000    0.00
   9.950    9.90    8.46    0.08   0.000   0.200   0.000    0.00
  10.000    9.72    6.30    0.26   0.000   0.200   0.000    0.00
  10.050    9.71    4.02   -0.09   0.000   0.200   0.000    0.00
  10.100    9.71    3.04   -0.61   0.000   0.200   0.000    0.00
  10.150    9.74    0.32   -0.14   0.000   0.200   0.000    0.00
  10.200    9.84    1.14    0.24   0.000   0.200   0.000    0.00
  10.250    9.88    1.01    0.33   0.000   0.200   0.000    0.00
  10.300    9.82    0.39    0.40   0.000   0.200   0.000    0.00
  10.350    9.54   -1.29    0.70   0.000   0.200   0.000    0.00
  10.400    8.80    0.23    0.32   0.000   0.200   0.000    0.00
  10.450    9.52    1.21   -0.15   0.000   0.200   0.000    0.00
  10.500    9.20    3.31    0.09   0.000   0.200   0.000    0.00
  10.550    9.40    2.69   -0.27   0.000   0.200   0.000    0.00
  10.600    9.63    1.89   -0.18   0.000   0.200   0.000    0.00
  10.650    9.60    3.23   -0.50   0.000   0.200   0.000    0.00
  10.700    9.78    5.46   -0.43   0.000   0.200   0.000    0.00
  10.750    9.80    6.50   -0.33   0.000   0.200   0.000    0.00
  10.800    9.58    7.46   -0.55   0.000   0.200   0.000    0.00
  10.850    9.02    5.26   -0.91   0.000   0.200   0.000    0.00
  10.900    8.96    0.10   -1.25   0.000   0.200   0.000    0.00
  10.950    8.98   -1.05   -0.99   0.000   0.200   0.000    0.00
  11.000    9.27   -1.70   -1.09   0.000   0.200   0.000    0.00
  11.050    9.61   -3.22   -1.07   0.000   0.200   0.000    0.00
  11.100    9.74   -7.62   -1.72   0.000   0.200   0.000    0.00
  11.150    9.68   -6.54   -1.36   0.000   0.200   0.000    0.00
  11.200    9.64   -4.79   -1.05   0.000   0.200   0.000    0.00
  11.250    9.76   -4.71   -1.66   0.000   0.200   0.000    0.00
  11.300   10.16   -4.15   -1.93   0.000   0.200   0.000    0.00
  11.350   10.36   -3.31   -1.84   0.000   0.200   0.000    0.00
  11.400   10.59   -4.84   -1.64   0.000   0.200   0.000    0.00
  11.450   10.79   -4.90   -1.88   0.000   0.200   0.000    0.00
  11.500   10.77   -5.22   -1.75   0.000   0.200   0.000    0.00
  11.550   10.47   -5.23   -1.48   0.000   0.200   0.000    0.00
  11.600   10.41   -2.25   -1.76   0.000   0.200   0.000    0.00
  11.650   10.58   -0.35   -1.55   0.000   0.200   0.000    0.00
  11.700   10.53    0.15   -1.02   0.000   0.200   0.000    0.00
  11.750   10.78    3.05   -1.32   0.000   0.200   0.000    0.00
  11.800   10.71    4.61   -1.24   0.000   0.200   0.000    0.00
  11.850   10.92    7.00   -1.74   0.000   0.200   0.000    0.00
  11.900   10.64    6.04   -1.70   0.000   0.200   0.000    0.00
  11.950   10.45    5.94   -1.45   0.000   0.200   0.000    0.00
  12.000   10.63    7.36   -1.01   0.000   0.200   0.000    0.00
  12.050   10.57    9.78   -1.18   0.000   0.200   0.000    0.00
  12.100   10.67    7.49   -1.01   0.000   0.200   0.000    0.00
  12.150   11.07    7.60   -1.40   0.000   0.200   0.000    0.00
  12.200   11.16    7.55   -1.19   0.000   0.200   0.000    0.00
  12.250   10.88    8.20   -1.61   0.000   0.200   0.000    0.00
  12.300   10.67    7.17   -1.23   0.000   0.200   0.000    0.00
  12.350   10.65    7.43   -1.19   0.000   0.200   0.000    0.00
  12.400   10.78   10.46   -1.02   0.000   0.200   0.000    0.00
  12.450   10.83   11.06   -0.58   0.000   0.200   0.000    0.00
  12.500   10.85   12.08   -0.71   0.000   0.200   0.000    0.00
  12.550   10.74    8.43   -1.12   0.000   0.200   0.000    0.00
  12.600   10.59   10.98   -0.85   0.000   0.200   0.000    0.00
  12.650   10.62   12.75   -1.03   0.000   0.200   0.000    0.00
  12.700   10.55   14.61   -0.71   0.000   0.200   0.000    0.00
  12.750   10.60   14.67   -0.40   0.000   0.200   0.000    0.00
  12.800   10.35   14.95   -0.15   0.000   0.200   0.000    0.00
  12.850   10.34   15.18   -0.23   0.000   0.200   0.000    0.00
  12.900   10.35   15.67   -0.83   0.000   0.200   0.000    0.00
  12.950   10.54   13.46   -0.87   0.000   0.200   0.000    0.00
  13.000   10.40   11.79   -0.84   0.000   0.200   0.000    0.00
  13.050   10.34   12.51   -1.17   0.000   0.200   0.000    0.00
  13.100   10.63   10.03   -0.71   0.000   0.200   0.000    0.00
  13.150   10.77    9.18   -1.05   0.000   0.200   0.000    0.00
  13.200   10.42   11.95   -0.91   0.000   0.200   0.000    0.00
  13.250   10.67   11.75   -0.95   0.000   0.200   0.000    0.00
  13.300   10.78   13.01   -0.37   0.000   0.200   0.000    0.00
  13.350   10.64   13.06   -0.04   0.000   0.200   0.000    0.00
  13.400   10.67   11.42    0.02   0.000   0.200   0.000    0.00
  13.450   10.28   12.19   -0.41   0.000   0.200   0.000    0.00
  13.500   10.08   14.36   -0.17   0.000   0.200   0.000    0.00
  13.550   10.50   13.82    0.24   0.000   0.200   0.000    0.00
  13.600   10.89   13.05    0.53   0.000   0.200   0.000    0.00
  13.650   10.99   14.96    0.47   0.000   0.200   0.000    0.00
  13.700   11.13   14.31    0.18   0.000   0.200   0.000    0.00
  13.750   11.10   14.46    0.42   0.000   0.200   0.000    0.00
  13.800   11.24   13.99    0.61   0.000   0.200   0.000    0.00
  13.850   11.46   13.41    0.18   0.000   0.200   0.000    0.00
  13.900   11.45   13.38    0.64   0.000   0.200   0.000    0.00
  13.950   11.36   14.04    0.31   0.000   0.200   0.000    0.00
  14.000   11.22   14.77    0.04   0.000   0.200   0.000    0.00
  14.050   11.05   15.62    0.30   0.000   0.200   0.000    0.00
  14.100   11.14   14.36    0.47   0.000   0.200   0.000    0.00
  14.150   11.38   12.37    0.34   0.000   0.200   0.000    0.00
  14.200   11.19   12.09    0.30   0.000   0.200   0.000    0.00
  14.250   10.89   10.94    0.45   0.000   0.200   0.000    0.00
  14.300   11.34   12.03    0.74   0.000   0.200   0.000    0.00
  14.350   11.27   11.09    1.27   0.000   0.200   0.000    0.00
  14.400   11.61   15.04    0.78   0.000   0.200   0.000    0.00
  14.450   11.76   15.24    0.60   0.000   0.200   0.000    0.00
  14.500   12.01   15.36    0.40   0.000   0.200   0.000    0.00
  14.550   11.79   13.54    0.64   0.000   0.200   0.000    0.00
  14.600   11.49   12.05    0.84   0.000   0.200   0.000    0.00
  14.650   11.45   11.74    0.75   0.000   0.200   0.000    0.00
  14.700   11.80   12.20    0.67   0.000   0.200   0.000    0.00
  14.750   11.88   12.17    1.05   0.000   0.200   0.000    0.00
  14.800   11.81   12.20    1.12   0.000   0.200   0.000    0.00
  14.850   12.16   11.02    1.50   0.000   0.200   0.000    0.00
  14.900   12.32    9.92    1.51   0.000   0.200   0.000    0.00
  14.950   12.16   11.51    1.54   0.000   0.200   0.000    0.00
  15.000   11.83    8.77    1.36   0.000   0.200   0.000    0.00
  15.050   12.05   11.00    1.33   0.000   0.200   0.000    0.00
  15.100   12.30   11.46    0.74   0.000   0.200   0.000    0.00
  15.150   12.65   13.92    0.53   0.000   0.200   0.000    0.00
  15.200   12.31   13.52    0.47   0.000   0.200   0.000    0.00
  15.250   11.85   11.95    0.34   0.000   0.200   0.000    0.00
  15.300   11.75   11.85    0.28   0.000   0.200   0.000    0.00
  15.350   11.60   10.67   -0.09   0.000   0.200   0.000    0.00
  15.400   11.68   10.44   -0.34   0.000   0.200   0.000    0.00
  15.450   11.70    9.41   -0.38   0.000   0.200   0.000    0.00
  15.500   11.77   10.07   -0.41   0.000   0.200   0.000    0.00
  15.550   12.22   10.16   -0.05   0.000   0.200   0.000    0.00
  15.600   12.32   10.98    0.13   0.000   0.200   0.000    0.00
  15.650   12.82   12.24    0.45   0.000   0.200   0.000    0.00
  15.700   12.59   12.60    0.34   0.000   0.200   0.000    0.00
  15.750   12.38   12.55    0.15   0.000   0.200   0.000    0.00
  15.800   12.67   11.18    0.03   0.000   0.200   0.000    0.00
  15.850   13.01   12.20   -0.25   0.000   0.200   0.000    0.00
  15.900   12.51   10.93   -0.21   0.000   0.200   0.000    0.00
  15.950   12.55   10.56    0.13   0.000   0.200   0.000    0.00
  16.000   12.58    8.78   -0.22   0.000   0.200   0.000    0.00
  16.050   12.78    7.46   -0.34   0.000   0.200   0.000    0.00
  16.100   12.59    8.79   -0.26   0.000   0.200   0.000    0.00
  16.150   12.56   11.46    0.41   0.000   0.200   0.000    0.00
  16.200   12.47   11.38    0.64   0.000   0.200   0.000    0.00
  16.250   12.44   13.74    0.52   0.000   0.200   0.000    0.00
  16.300   12.43   14.83    0.26   0.000   0.200   0.000    0.00
  16.350   12.64   13.20    0.68   0.000   0.200   0.000    0.00
  16.400   12.53   13.30    0.30   0.000   0.200   0.000    0.00
  16.450   13.09   14.36   -0.10   0.000   0.200   0.000    0.00
  16.500   13.37   12.50   -0.46   0.000   0.200   0.000    0.00
  16.550   13.25   12.45   -0.28   0.000   0.200   0.000    0.00
  16.600   12.96   14.57   -0.35   0.000   0.200   0.000    0.00
  16.650   13.06   16.06   -0.50   0.000   0.200   0.000    0.00
  16.700   12.94   15.86   -0.20   0.000   0.200   0.000    0.00
  16.750   12.88   15.87   -0.65   0.000   0.200   0.000    0.00
  16.800   12.84   15.16   -0.70   0.000   0.200   0.000    0.00
  16.850   13.27   15.39   -0.97   0.000   0.200   0.000    0.00
  16.900   13.16   15.05   -0.93   0.000   0.200   0.000    0.00
  16.950   13.06   14.10   -0.72   0.000   0.200   0.000    0.00
  17.000   12.79   15.07   -0.97   0.000   0.200   0.000    0.00
  17.050   12.61   14.32   -0.83   0.000   0.200   0.000    0.00
  17.100   12.94   14.64   -0.37   0.000   0.200   0.000    0.00
  17.150   12.63   15.23   -0.18   0.000   0.200   0.000    0.00
  17.200   12.45   14.68   -0.16   0.000   0.200   0.000    0.00
  17.250   12.81   13.74   -0.37   0.000   0.200   0.000    0.00
  17.300   12.62   14.23   -0.78   0.000   0.200   0.000    0.00
  17.350   12.50   14.02   -0.37   0.000   0.200   0.000    0.00
  17.400   12.91   14.72   -0.31   0.000   0.200   0.000    0.00
  17.450   13.05   15.57   -0.08   0.000   0.200   0.000    0.00
  17.500   12.84   13.26   -0.02   0.000   0.200   0.000    0.00
  17.550   13.12   14.09    0.03   0.000   0.200   0.000    0.00
  17.600   12.95   13.51    0.35   0.000   0.200   0.000    0.00
  17.650   13.23   12.69    0.06   0.000   0.200   0.000    0.00
  17.700   12.82   12.16   -0.25   0.000   0.200   0.000    0.00
  17.750   12.94   12.82   -0.46   0.000   0.200   0.000    0.00
  17.800   13.06   11.97   -0.95   0.000   0.200   0.000    0.00
  17.850   13.17   11.16   -0.92   0.000   0.200   0.000    0.00
  17.900   13.14    9.13   -1.08   0.000   0.200   0.000    0.00
  17.950   13.01   10.70   -1.21   0.000   0.200   0.000    0.00
  18.000   12.76    9.58   -1.11   0.000   0.200   0.000    0.00
  18.050   13.13    8.88   -0.85   0.000   0.200   0.000    0.00
  18.100   13.30    9.50   -0.79   0.000   0.200   0.000    0.00
  18.150   13.14    9.25   -1.05   0.000   0.200   0.000    0.00
  18.200   12.71    8.97   -1.35   0.000   0.200   0.000    0.00
  18.250   12.39    9.45   -1.50   0.000   0.200   0.000    0.00
  18.300   12.60   10.72   -1.29   0.000   0.200   0.000    0.00
  18.350   12.58    8.91   -1.04   0.000   0.200   0.000    0.00
  18.400   12.46   10.24   -1.23   0.000   0.200   0.000    0.00
  18.450   12.27    9.65   -0.86   0.000   0.200   0.000    0.00
  18.500   12.22    9.42   -0.46   0.000   0.200   0.000    0.00
  18.550   12.19    8.14   -1.17   0.000   0.200   0.000    0.00
  18.600   11.80    7.57   -1.18   0.000   0.200   0.000    0.00
  18.650   12.17    6.74   -1.46   0.000   0.200   0.000    0.00
  18.700   11.99    8.72   -1.49   0.000   0.200   0.000    0.00
  18.750   12.43    8.33   -1.52   0.000   0.200   0.000    0.00
  18.800   12.37    9.87   -1.12   0.000   0.200   0.000    0.00
  18.850   12.18    9.77   -0.99   0.000   0.200   0.000    0.00
  18.900   12.21    9.79   -0.76   0.000   0.200   0.000    0.00
  18.950   12.68   10.44   -1.18   0.000   0.200   0.000    0.00
  19.000   12.64   10.47   -0.81   0.000   0.200   0.000    0.00
  19.050   12.29   11.33   -0.49   0.000   0.200   0.000    0.00
  19.100   12.63   13.81    0.01   0.000   0.200   0.000    0.00
  19.150   12.57   12.42   -0.26   0.000   0.200   0.000    0.00
  19.200   13.00   11.26   -0.24   0.000   0.200   0.000    0.00
  19.250   12.84   10.39   -0.30   0.000   0.200   0.000    0.00
  19.300   13.07   11.00    0.02   0.000   0.200   0.000    0.00
  19.350   12.61   12.15    0.07   0.000   0.200   0.000    0.00
  19.400   12.27   11.61   -0.15   0.000   0.200   0.000    0.00
  19.450   12.39   12.98   -0.01   0.000   0.200   0.000    0.00
  19.500   12.17   11.65   -0.24   0.000   0.200   0.000    0.00
  19.550   12.10   11.73   -0.43   0.000   0.200   0.000    0.00
  19.600   11.79   13.80   -0.66   0.000   0.200   0.000    0.00
  19.650   11.92   14.06   -0.54   0.000   0.200   0.000    0.00
  19.700   11.45   13.10   -0.82   0.000   0.200   0.000    0.00
  19.750   11.42   13.08   -1.01   0.000   0.200   0.000    0.00
  19.800   11.10   12.93   -0.97   0.000   0.200   0.000    0.00
  19.850   10.84   12.84   -1.16   0.000   0.200   0.000    0.00
  19.900   11.10   13.24   -0.94   0.000   0.200   0.000    0.00
  19.950   11.20   16.13   -1.05   0.000   0.200   0.000    0.00
  20.000   11.36   13.72   -1.06   0.000   0.200   0.000    0.00
  20.050   11.35   11.70   -0.93   0.000   0.200   0.000    0.00
  20.100   11.57   13.72   -0.85   0.000   0.200   0.000    0.00
  20.150   11.38   14.35   -1.04   0.000   0.200   0.000    0.00
  20.200   11.30   13.75   -0.77   0.000   0.200   0.000    0.00
  20.250   11.41   12.83   -0.84   0.000   0.200   0.000    0.00
  20.300   12.22   12.95   -0.55   0.000   0.200   0.000    0.00
  20.350   12.05   11.85   -0.76   0.000   0.200   0.000    0.00
  20.400   11.64   13.78   -1.01   0.000   0.200   0.000    0.00
  20.450   12.10   13.04   -0.70   0.000   0.200   0.000    0.00
  20.500   12.50   12.35   -0.33   0.000   0.200   0.000    0.00
  20.550   12.36   12.09   -0.58   0.000   0.200   0.000    0.00
  20.600   12.56   13.27   -0.80   0.000   0.200   0.000    0.00
  20.650   12.11   15.24   -0.84   0.000   0.200   0.000    0.00
  20.700   12.04   16.61   -0.88   0.000   0.200   0.000    0.00
  20.750   11.82   15.83   -0.95   0.000   0.200   0.000    0.00
  20.800   11.88   17.52   -0.87   0.000   0.200   0.000    0.00
  20.850   11.80   17.89   -0.13   0.000   0.200   0.000    0.00
  20.900   11.75   20.46   -0.12   0.000   0.200   0.000    0.00
  20.950   11.63   21.94    0.30   0.000   0.200   0.000    0.00
  21.000   11.22   22.52   -0.10   0.000   0.200   0.000    0.00
  21.050   11.05   22.28   -0.20   0.000   0.200   0.000    0.00
  21.100   11.23   22.50   -0.19   0.000   0.200   0.000    0.00
  21.150   11.75   21.22    0.26   0.000   0.200   0.000    0.00
  21.200   11.56   20.20    0.69   0.000   0.200   0.000    0.00
  21.250   11.66   19.44   -0.06   0.000   0.200   0.000    0.00
  21.300   11.54   15.21   -0.22   0.000   0.200   0.000    0.00
  21.350   11.68   17.29   -0.77   0.000   0.200   0.000    0.00
  21.400   11.34   19.11   -0.53   0.000   0.200   0.000    0.00
  21.450   11.40   19.91   -0.30   0.000   0.200   0.000    0.00
  21.500   11.18   17.16   -0.12   0.000   0.200   0.000    0.00
  21.550   11.02   15.62    0.14   0.000   0.200   0.000    0.00
  21.600   10.59   14.05    0.67   0.000   0.200   0.000    0.00
  21.650   10.64   15.41    0.63   0.000   0.200   0.000    0.00
  21.700   10.74   11.91    0.93   0.000   0.200   0.000    0.00
  21.750   10.83   11.06    0.89   0.000   0.200   0.000    0.00
  21.800   10.65   10.97    0.25   0.000   0.200   0.000    0.00
  21.850   10.43   10.51    0.19   0.000   0.200   0.000    0.00
  21.900   10.70   11.03    0.11   0.000   0.200   0.000    0.00
  21.950   10.67    8.01    0.09   0.000   0.200   0.000    0.00
  22.000   10.93    8.33    0.25   0.000   0.200   0.000    0.00
  22.050   10.93    9.03    0.25   0.000   0.200   0.000    0.00
  22.100   11.03    8.54    0.02   0.000   0.200   0.000    0.00
  22.150   11.10    8.00   -0.70   0.000   0.200   0.000    0.00
  22.200   10.72    8.62   -0.53   0.000   0.200   0.000    0.00
  22.250   10.66    9.97   -0.82   0.000   0.200   0.000    0.00
  22.300   10.46   11.28   -0.41   0.000   0.200   0.000    0.00
  22.350   10.56   11.32   -0.27   0.000   0.200   0.000    0.00