! This hub-height wind-speed file was generated by TurbSim (v1.06.00, 21-Sep-2012) on 16-Jun-2018 at 18:37:48.
!
! The requested statistics for this data were:
!    Mean Total Wind Speed =   19.000 m/s
!    Turbulence Intensity  =   14.626%
!
!   Time  HorSpd  WndDir  VerSpd  HorShr  VerShr  LnVShr  GstSpd
!  (sec)   (m/s)   (deg)   (m/s)     (-)     (-)     (-)   (m/s)
   0.000   18.80    5.25   -2.17   0.000   0.200   0.000    0.00
   0.050   18.10    8.53   -2.91   0.000   0.200   0.000    0.00
   0.100   18.01    7.61   -2.37   0.000   0.200   0.000    0.00
   0.150   18.26    4.67   -2.63   0.000   0.200   0.000    0.00
   0.200   18.64    5.71   -2.21   0.000   0.200   0.000    0.00
   0.250   19.13    1.02   -2.94   0.000   0.200   0.000    0.00
   0.300   19.50    2.58   -3.04   0.000   0.200   0.000    0.00
   0.350   19.34    3.00   -2.07   0.000   0.200   0.000    0.00
   0.400   19.29    1.67   -1.89   0.000   0.200   0.000    0.00
   0.450   19.41    3.44   -1.61   0.000   0.200   0.000    0.00
   0.500   19.74    5.77   -1.81   0.000   0.200   0.000    0.00
   0.550   19.57    5.67   -1.46   0.000   0.200   0.000    0.00
   0.600   20.23    6.44   -1.45   0.000   0.200   0.000    0.00
   0.650   20.75    2.40   -1.09   0.000   0.200   0.000    0.00
   0.700   21.14   -0.34   -0.95   0.000   0.200   0.000    0.00
   0.750   22.18    1.81   -0.57   0.000   0.200   0.000    0.00
   0.800   22.08    1.91   -0.99   0.000   0.200   0.000    0.00
   0.850   21.73    1.37   -1.39   0.000   0.200   0.000    0.00
   0.900   21.43    2.09   -0.11   0.000   0.200   0.000    0.00
   0.950   20.54    3.96    0.08   0.000   0.200   0.000    0.00
   1.000   20.60    2.44   -0.67   0.000   0.200   0.000    0.00
   1.050   20.48    3.76   -0.53   0.000   0.200   0.000    0.00
   1.100   19.95    3.15    0.27   0.000   0.200   0.000    0.00
   1.150   20.27    5.32    0.45   0.000   0.200   0.000    0.00
   1.200   20.65    6.87    0.12   0.000   0.200   0.000    0.00
   1.250   20.12    9.08   -0.13   0.000   0.200   0.000    0.00
   1.300   19.85    6.75    0.07   0.000   0.200   0.000    0.00
   1.350   19.93    6.52    0.04   0.000   0.200   0.000    0.00
   1.400   19.12    6.16   -0.68   0.000   0.200   0.000    0.00
   1.450   19.18    7.42   -0.95   0.000   0.200   0.000    0.00
   1.500   19.04    6.06   -1.53   0.000   0.200   0.000    0.00
   1.550   19.71    4.54   -2.65   0.000   0.200   0.000    0.00
   1.600   20.20    4.55   -3.41   0.000   0.200   0.000    0.00
   1.650   19.18    6.24   -3.08   0.000   0.200   0.000    0.00
   1.700   19.03    4.62   -2.30   0.000   0.200   0.000    0.00
   1.750   19.81    4.90   -1.79   0.000   0.200   0.000    0.00
   1.800   20.39    4.33   -0.91   0.000   0.200   0.000    0.00
   1.850   20.44    5.16   -0.83   0.000   0.200   0.000    0.00
   1.900   20.68    8.18   -0.35   0.000   0.200   0.000    0.00
   1.950   20.57    6.86   -0.91   0.000   0.200   0.000    0.00
   2.000   20.29    5.53   -0.75   0.000   0.200   0.000    0.00
   2.050   20.38    5.85    0.03   0.000   0.200   0.000    0.00
   2.100   19.64    2.79    0.73   0.000   0.200   0.000    0.00
   2.150   19.22    4.27    1.36   0.000   0.200   0.000    0.00
   2.200   19.69    5.71    2.60   0.000   0.200   0.000    0.00
   2.250   19.19    2.26    3.11   0.000   0.200   0.000    0.00
   2.300   19.28    3.73    2.33   0.000   0.200   0.000    0.00
   2.350   18.94    4.54    1.33   0.000   0.200   0.000    0.00
   2.400   18.56    3.57    1.38   0.000   0.200   0.000    0.00
   2.450   18.43   -0.09    1.01   0.000   0.200   0.000    0.00
   2.500   18.55    0.16    0.51   0.000   0.200   0.000    0.00
   2.550   19.23   -0.50    0.02   0.000   0.200   0.000    0.00
   2.600   19.37    0.67    0.37   0.000   0.200   0.000    0.00
   2.650   20.02    1.17    0.78   0.000   0.200   0.000    0.00
   2.700   20.17    0.11    0.73   0.000   0.200   0.000    0.00
   2.750   20.21   -1.68    0.59   0.000   0.200   0.000    0.00
   2.800   19.01   -0.40    1.04   0.000   0.200   0.000    0.00
   2.850   19.03    0.55    0.88   0.000   0.200   0.000    0.00
   2.900   18.46    3.23    0.96   0.000   0.200   0.000    0.00
   2.950   17.94    2.57    1.56   0.000   0.200   0.000    0.00
   3.000   18.35    0.52    1.51   0.000   0.200   0.000    0.00
   3.050   18.12    1.15    2.01   0.000   0.200   0.000    0.00
   3.100   18.08    1.54    1.74   0.000   0.200   0.000    0.00
   3.150   19.03    0.22    3.50   0.000   0.200   0.000    0.00
   3.200   18.51    0.52    3.01   0.000   0.200   0.000    0.00
   3.250   18.12   -0.14    3.56   0.000   0.200   0.000    0.00
   3.300   18.03   -1.24    4.33   0.000   0.200   0.000    0.00
   3.350   18.13    0.88    4.33   0.000   0.200   0.000    0.00
   3.400   17.98    1.89    3.77   0.000   0.200   0.000    0.00
   3.450   17.86    2.09    3.45   0.000   0.200   0.000    0.00
   3.500   17.19    1.20    3.37   0.000   0.200   0.000    0.00
   3.550   17.13    0.59    3.20   0.000   0.200   0.000    0.00
   3.600   17.09   -1.44    2.19   0.000   0.200   0.000    0.00
   3.650   17.97   -2.59    1.83   0.000   0.200   0.000    0.00
   3.700   18.56   -3.50    2.00   0.000   0.200   0.000    0.00
   3.750   18.36    0.44    1.90   0.000   0.200   0.000    0.00
   3.800   18.96    1.42    1.26   0.000   0.200   0.000    0.00
   3.850   18.85    0.04    2.02   0.000   0.200   0.000    0.00
   3.900   18.45    1.00    1.60   0.000   0.200   0.000    0.00
   3.950   18.94    1.06    1.75   0.000   0.200   0.000    0.00
   4.000   19.26    1.08    2.15   0.000   0.200   0.000    0.00
   4.050   19.37    2.38    2.16   0.000   0.200   0.000    0.00
   4.100   19.87    0.40    2.22   0.000   0.200   0.000    0.00
   4.150   20.06   -0.94    1.73   0.000   0.200   0.000    0.00
   4.200   19.68   -1.48    2.26   0.000   0.200   0.000    0.00
   4.250   20.40    1.17    2.43   0.000   0.200   0.000    0.00
   4.300   20.24   -0.49    2.70   0.000   0.200   0.000    0.00
   4.350   20.62   -0.40    2.85   0.000   0.200   0.000    0.00
   4.400   20.49   -0.65    2.69   0.000   0.200   0.000    0.00
   4.450   19.92   -1.86    2.22   0.000   0.200   0.000    0.00
   4.500   19.66   -1.82    1.25   0.000   0.200   0.000    0.00
   4.550   19.76   -3.00    0.93   0.000   0.200   0.000    0.00
   4.600   20.13   -3.46   -0.12   0.000   0.200   0.000    0.00
   4.650   19.21   -1.25    1.29   0.000   0.200   0.000    0.00
   4.700   18.15    2.11    0.56   0.000   0.200   0.000    0.00
   4.750   18.48    0.65    1.34   0.000   0.200   0.000    0.00
   4.800   18.30   -0.23    1.10   0.000   0.200   0.000    0.00
   4.850   17.88    2.01    1.10   0.000   0.200   0.000    0.00
   4.900   17.55    0.09    2.02   0.000   0.200   0.000    0.00
   4.950   17.74    0.16    1.85   0.000   0.200   0.000    0.00
   5.000   17.61    1.83    1.76   0.000   0.200   0.000    0.00
   5.050   17.90    2.82    0.76   0.000   0.200   0.000    0.00
   5.100   17.63   -0.48    0.34   0.000   0.200   0.000    0.00
   5.150   17.17    0.10    0.28   0.000   0.200   0.000    0.00
   5.200   18.37    0.41    0.51   0.000   0.200   0.000    0.00
   5.250   17.68    0.62    1.33   0.000   0.200   0.000    0.00
   5.300   16.97    3.22    1.86   0.000   0.200   0.000    0.00
   5.350   17.63    4.40    1.10   0.000   0.200   0.000    0.00
   5.400   18.04    4.15    1.80   0.000   0.200   0.000    0.00
   5.450   17.22    3.17    1.93   0.000   0.200   0.000    0.00
   5.500   17.37    1.98    1.04   0.000   0.200   0.000    0.00
   5.550   17.11    1.54    1.50   0.000   0.200   0.000    0.00
   5.600   17.08    5.12    1.53   0.000   0.200   0.000    0.00
   5.650   17.46    7.52    1.71   0.000   0.200   0.000    0.00
   5.700   17.59    8.36    1.84   0.000   0.200   0.000    0.00
   5.750   17.73   10.43    1.52   0.000   0.200   0.000    0.00
   5.800   18.49   16.11    0.35   0.000   0.200   0.000    0.00
   5.850   18.53   13.15   -0.01   0.000   0.200   0.000    0.00
   5.900   18.12   13.26    0.28   0.000   0.200   0.000    0.00
   5.950   18.09   14.33   -0.69   0.000   0.200   0.000    0.00
   6.000   17.36   14.29   -0.56   0.000   0.200   0.000    0.00
   6.050   17.55   13.65   -0.97   0.000   0.200   0.000    0.00
   6.100   17.16   13.61   -0.76   0.000   0.200   0.000    0.00
   6.150   17.22   11.98   -0.59   0.000   0.200   0.000    0.00
   6.200   17.02   11.78    0.53   0.000   0.200   0.000    0.00
   6.250   17.17   11.53   -0.07   0.000   0.200   0.000    0.00
   6.300   16.81   12.07   -0.38   0.000   0.200   0.000    0.00
   6.350   16.72    9.81   -0.48   0.000   0.200   0.000    0.00
   6.400   16.29   12.89   -0.71   0.000   0.200   0.000    0.00
   6.450   15.96   13.29   -0.62   0.000   0.200   0.000    0.00
   6.500   15.74   10.03   -0.92   0.000   0.200   0.000    0.00
   6.550   14.48    9.63   -1.91   0.000   0.200   0.000    0.00
   6.600   14.47    9.44   -0.82   0.000   0.200   0.000    0.00
   6.650   15.14    8.65   -1.08   0.000   0.200   0.000    0.00
   6.700   15.40    8.81    0.02   0.000   0.200   0.000    0.00
   6.750   15.93    9.04    0.98   0.000   0.200   0.000    0.00
   6.800   15.51   10.93    0.81   0.000   0.200   0.000    0.00
   6.850   16.80   14.55    1.14   0.000   0.200   0.000    0.00
   6.900   16.39   14.94   -0.11   0.000   0.200   0.000    0.00
   6.950   17.28   18.16   -0.52   0.000   0.200   0.000    0.00
   7.000   16.91   20.32   -0.59   0.000   0.200   0.000    0.00
   7.050   17.54   21.98   -0.47   0.000   0.200   0.000    0.00
   7.100   17.90   20.33   -1.37   0.000   0.200   0.000    0.00
   7.150   17.86   18.65   -0.80   0.000   0.200   0.000    0.00
   7.200   17.95   18.75    0.26   0.000   0.200   0.000    0.00
   7.250   16.62   16.57    0.03   0.000   0.200   0.000    0.00
   7.300   17.21   13.75    0.60   0.000   0.200   0.000    0.00
   7.350   17.93   13.47    0.89   0.000   0.200   0.000    0.00
   7.400   18.01   15.31    0.61   0.000   0.200   0.000    0.00
   7.450   18.69   15.32    1.08   0.000   0.200   0.000    0.00
   7.500   18.62   16.43    0.77   0.000   0.200   0.000    0.00
   7.550   18.28   13.74    1.77   0.000   0.200   0.000    0.00
   7.600   17.93   10.50    2.18   0.000   0.200   0.000    0.00
   7.650   18.04   14.14    2.31   0.000   0.200   0.000    0.00
   7.700   16.88   11.18    2.99   0.000   0.200   0.000    0.00
   7.750   16.71   11.01    2.81   0.000   0.200   0.000    0.00
   7.800   16.63    8.48    2.29   0.000   0.200   0.000    0.00
   7.850   17.12    8.13    2.04   0.000   0.200   0.000    0.00
   7.900   17.87    8.41    2.02   0.000   0.200   0.000    0.00
   7.950   17.52    7.10    1.78   0.000   0.200   0.000    0.00
   8.000   17.95    6.46    2.34   0.000   0.200   0.000    0.00
   8.050   17.99    5.04    1.51   0.000   0.200   0.000    0.00
   8.100   18.26    6.89    0.60   0.000   0.200   0.000    0.00
   8.150   18.25    6.05    1.76   0.000   0.200   0.000    0.00
   8.200   17.25    4.25    2.03   0.000   0.200   0.000    0.00
   8.250   17.81    3.39    1.30   0.000   0.200   0.000    0.00
   8.300   18.90    3.45    0.51   0.000   0.200   0.000    0.00
   8.350   18.29    4.99    0.08   0.000   0.200   0.000    0.00
   8.400   18.05    1.74    0.62   0.000   0.200   0.000    0.00
   8.450   18.75    5.17    1.04   0.000   0.200   0.000    0.00
   8.500   18.64    4.83    1.90   0.000   0.200   0.000    0.00
   8.550   18.10    3.44    2.53   0.000   0.200   0.000    0.00
   8.600   18.45    4.62    1.34   0.000   0.200   0.000    0.00
   8.650   18.71    3.53    1.81   0.000   0.200   0.000    0.00
   8.700   18.84    2.22    2.06   0.000   0.200   0.000    0.00
   8.750   18.22    1.30    2.26   0.000   0.200   0.000    0.00
   8.800   18.29    1.15    1.73   0.000   0.200   0.000    0.00
   8.850   18.09    0.93    1.43   0.000   0.200   0.000    0.00
   8.900   18.59   -0.31    1.42   0.000   0.200   0.000    0.00
   8.950   18.48    1.71    0.75   0.000   0.200   0.000    0.00
   9.000   17.87    1.51    1.40   0.000   0.200   0.000    0.00
   9.050   18.27    4.51    1.81   0.000   0.200   0.000    0.00
   9.100   18.43    1.48    1.54   0.000   0.200   0.000    0.00
   9.150   18.11    1.31    1.69   0.000   0.200   0.000    0.00
   9.200   18.22    1.81    2.34   0.000   0.200   0.000    0.00
   9.250   18.52    0.42    1.44   0.000   0.200   0.000    0.00
   9.300   18.56    0.45    1.56   0.000   0.200   0.000    0.00
   9.350   18.00   -1.29    1.20   0.000   0.200   0.000    0.00
   9.400   17.82    1.60    1.38   0.000   0.200   0.000    0.00
   9.450   17.43    3.53    1.77   0.000   0.200   0.000    0.00
   9.500   18.02    4.24    1.20   0.000   0.200   0.000    0.00
   9.550   17.97    3.40    1.65   0.000   0.200   0.000    0.00
   9.600   18.72    2.48    1.92   0.000   0.200   0.000    0.00
   9.650   18.25    3.26    2.08   0.000   0.200   0.000    0.00
   9.700   17.32    3.78    1.27   0.000   0.200   0.000    0.00
   9.750   17.29    3.13   -0.28   0.000   0.200   0.000    0.00
   9.800   16.37    3.92   -0.26   0.000   0.200   0.000    0.00
   9.850   15.86    3.42   -0.63   0.000   0.200   0.000    0.00
   9.900   15.81    4.83   -0.08   0.000   0.200   0.000    0.00
   9.950   15.54    8.01   -0.18   0.000   0.200   0.000    0.00
  10.000   15.52   11.29    0.17   0.000   0.200   0.000    0.00
  10.050   15.02   12.01   -0.40   0.000   0.200   0.000    0.00
  10.100   15.56   13.85   -0.46   0.000   0.200   0.000    0.00
  10.150   16.29   10.11    0.32   0.000   0.200   0.000    0.00
  10.200   16.74    7.18    0.15   0.000   0.200   0.000    0.00
  10.250   16.34    5.36    1.16   0.000   0.200   0.000    0.00
  10.300   16.57    4.80    1.74   0.000   0.200   0.000    0.00
  10.350   16.46    4.38    0.92   0.000   0.200   0.000    0.00
  10.400   16.97    4.06    0.30   0.000   0.200   0.000    0.00
  10.450   16.80    5.58    1.76   0.000   0.200   0.000    0.00
  10.500   17.21    9.01    1.55   0.000   0.200   0.000    0.00
  10.550   17.16    8.14    1.44   0.000   0.200   0.000    0.00
  10.600   17.06    9.07    1.98   0.000   0.200   0.000    0.00
  10.650   16.67   10.80    2.47   0.000   0.200   0.000    0.00
  10.700   16.51   12.60    2.31   0.000   0.200   0.000    0.00
  10.750   16.89    8.80    1.85   0.000   0.200   0.000    0.00
  10.800   16.75   12.12    1.47   0.000   0.200   0.000    0.00
  10.850   16.23   12.22    0.58   0.000   0.200   0.000    0.00
  10.900   16.45   10.97    0.71   0.000   0.200   0.000    0.00
  10.950   17.20   12.95    0.87   0.000   0.200   0.000    0.00
  11.000   15.91   10.91    1.06   0.000   0.200   0.000    0.00
  11.050   16.24   11.27    0.30   0.000   0.200   0.000    0.00
  11.100   16.81   14.66    0.20   0.000   0.200   0.000    0.00
  11.150   16.37   13.64    0.45   0.000   0.200   0.000    0.00
  11.200   15.83   13.06    0.89   0.000   0.200   0.000    0.00
  11.250   15.79   14.83    0.83   0.000   0.200   0.000    0.00
  11.300   16.37   16.65    0.80   0.000   0.200   0.000    0.00
  11.350   16.07   16.96    1.16   0.000   0.200   0.000    0.00
  11.400   15.77   16.68    0.80   0.000   0.200   0.000    0.00
  11.450   15.18   15.82    0.12   0.000   0.200   0.000    0.00
  11.500   15.16   18.19   -0.15   0.000   0.200   0.000    0.00
  11.550   16.59   17.20    0.14   0.000   0.200   0.000    0.00
  11.600   15.79   13.73    0.25   0.000   0.200   0.000    0.00
  11.650   16.57   13.45   -0.45   0.000   0.200   0.000    0.00
  11.700   16.11   11.44   -0.50   0.000   0.200   0.000    0.00
  11.750   16.08   11.80   -0.56   0.000   0.200   0.000    0.00
  11.800   16.43   10.69   -0.92   0.000   0.200   0.000    0.00
  11.850   16.22    7.74   -1.05   0.000   0.200   0.000    0.00
  11.900   16.65   10.32   -0.26   0.000   0.200   0.000    0.00
  11.950   15.81    7.39   -0.29   0.000   0.200   0.000    0.00
  12.000   16.10    6.54   -0.47   0.000   0.200   0.000    0.00
  12.050   15.56    7.42    0.08   0.000   0.200   0.000    0.00
  12.100   15.48    6.76    0.54   0.000   0.200   0.000    0.00
  12.150   15.60    2.71    1.12   0.000   0.200   0.000    0.00
  12.200   15.76    2.47    0.74   0.000   0.200   0.000    0.00
  12.250   15.86    3.07    0.63   0.000   0.200   0.000    0.00
  12.300   16.01    2.35    0.62   0.000   0.200   0.000    0.00
  12.350   16.37    3.10    0.31   0.000   0.200   0.000    0.00
  12.400   16.64    0.24    1.19   0.000   0.200   0.000    0.00
  12.450   16.11    0.53    1.34   0.000   0.200   0.000    0.00
  12.500   15.28    1.58    1.40   0.000   0.200   0.000    0.00
  12.550   14.35    6.84    1.28   0.000   0.200   0.000    0.00
  12.600   14.44    8.07    1.66   0.000   0.200   0.000    0.00
  12.650   13.84   12.31    2.09   0.000   0.200   0.000    0.00
  12.700   13.75   10.55    1.27   0.000   0.200   0.000    0.00
  12.750   14.25   10.00    1.14   0.000   0.200   0.000    0.00
  12.800   14.05   11.14    1.12   0.000   0.200   0.000    0.00
  12.850   13.88   11.38    0.74   0.000   0.200   0.000    0.00
  12.900   13.55    7.69    0.58   0.000   0.200   0.000    0.00
  12.950   13.51    8.29    0.46   0.000   0.200   0.000    0.00
  13.000   13.48    8.69    0.16   0.000   0.200   0.000    0.00
  13.050   12.31    7.32    1.27   0.000   0.200   0.000    0.00
  13.100   13.07    5.17   -0.34   0.000   0.200   0.000    0.00
  13.150   12.72    2.83   -0.17   0.000   0.200   0.000    0.00
  13.200   13.54    5.40   -0.21   0.000   0.200   0.000    0.00
  13.250   14.22    3.08   -0.59   0.000   0.200   0.000    0.00
  13.300   15.41    4.57   -1.00   0.000   0.200   0.000    0.00
  13.350   14.44    2.28   -0.56   0.000   0.200   0.000    0.00
  13.400   14.68    3.02   -1.37   0.000   0.200   0.000    0.00
  13.450   14.43    2.70   -1.48   0.000   0.200   0.000    0.00
  13.500   14.63    3.66   -1.62   0.000   0.200   0.000    0.00
  13.550   14.94    2.74   -2.39   0.000   0.200   0.000    0.00
  13.600   14.79    0.54   -2.81   0.000   0.200   0.000    0.00
  13.650   13.89    0.76   -1.86   0.000   0.200   0.000    0.00
  13.700   13.85    1.77   -1.28   0.000   0.200   0.000    0.00
  13.750   13.25    5.02   -1.40   0.000   0.200   0.000    0.00
  13.800   12.76    5.86   -0.98   0.000   0.200   0.000    0.00
  13.850   13.00    1.48   -1.37   0.000   0.200   0.000    0.00
  13.900   14.01    1.04   -1.76   0.000   0.200   0.000    0.00
  13.950   14.15   -3.40   -2.39   0.000   0.200   0.000    0.00
  14.000   13.74   -2.10   -2.47   0.000   0.200   0.000    0.00
  14.050   13.50   -1.37   -1.92   0.000   0.200   0.000    0.00
  14.100   13.62   -4.53   -2.45   0.000   0.200   0.000    0.00
  14.150   13.36   -3.98   -2.21   0.000   0.200   0.000    0.00
  14.200   13.73   -1.39   -1.96   0.000   0.200   0.000    0.00
  14.250   14.63    0.17   -2.29   0.000   0.200   0.000    0.00
  14.300   14.13    0.34   -2.19   0.000   0.200   0.000    0.00
  14.350   15.20    0.81   -0.81   0.000   0.200   0.000    0.00
  14.400   15.26    1.70   -0.28   0.000   0.200   0.000    0.00
  14.450   14.57    0.32    0.50   0.000   0.200   0.000    0.00
  14.500   15.21   -0.92   -0.19   0.000   0.200   0.000    0.00
  14.550   14.77    1.54   -1.29   0.000   0.200   0.000    0.00
  14.600   14.33    4.31   -0.71   0.000   0.200   0.000    0.00
  14.650   13.32    9.22   -1.04   0.000   0.200   0.000    0.00
  14.700   13.57   10.63   -1.42   0.000   0.200   0.000    0.00
  14.750   13.45    7.34   -1.54   0.000   0.200   0.000    0.00
  14.800   13.43    5.91   -2.06   0.000   0.200   0.000    0.00
  14.850   13.47    2.98   -2.35   0.000   0.200   0.000    0.00
  14.900   14.40    3.57   -1.29   0.000   0.200   0.000    0.00
  14.950   14.03    4.05   -1.50   0.000   0.200   0.000    0.00
  15.000   15.06    6.51   -0.82   0.000   0.200   0.000    0.00
  15.050   15.22    9.19    0.60   0.000   0.200   0.000    0.00
  15.100   15.64   10.19    1.19   0.000   0.200   0.000    0.00
  15.150   16.86    8.73    1.81   0.000   0.200   0.000    0.00
  15.200   15.69    8.35    1.87   0.000   0.200   0.000    0.00
  15.250   15.53    7.53    1.57   0.000   0.200   0.000    0.00
  15.300   15.43    7.55    0.72   0.000   0.200   0.000    0.00
  15.350   15.75    7.42    0.39   0.000   0.200   0.000    0.00
  15.400   15.54    7.23   -0.20   0.000   0.200   0.000    0.00
  15.450   15.72    9.07   -0.22   0.000   0.200   0.000    0.00
  15.500   15.95   11.09    0.71   0.000   0.200   0.000    0.00
  15.550   15.71   10.87    0.35   0.000   0.200   0.000    0.00
  15.600   15.80    7.03   -0.65   0.000   0.200   0.000    0.00
  15.650   16.25    5.71    0.12   0.000   0.200   0.000    0.00
  15.700   16.89    6.72    0.20   0.000   0.200   0.000    0.00
  15.750   17.60    5.68   -0.33   0.000   0.200   0.000    0.00
  15.800   17.48    0.61   -0.61   0.000   0.200   0.000    0.00
  15.850   17.97    2.21   -0.08   0.000   0.200   0.000    0.00
  15.900   18.47    2.21    0.11   0.000   0.200   0.000    0.00
  15.950   19.19   -0.10    0.40   0.000   0.200   0.000    0.00
  16.000   18.34    0.63   -0.13   0.000   0.200   0.000    0.00
  16.050   18.61   -0.25   -0.05   0.000   0.200   0.000    0.00
  16.100   19.01   -4.72   -0.76   0.000   0.200   0.000    0.00
  16.150   20.13   -4.43   -0.43   0.000   0.200   0.000    0.00
  16.200   20.38   -8.60   -0.20   0.000   0.200   0.000    0.00
  16.250   19.17   -7.29    1.16   0.000   0.200   0.000    0.00
  16.300   18.42   -3.88    0.91   0.000   0.200   0.000    0.00
  16.350   18.49   -0.50   -0.20   0.000   0.200   0.000    0.00
  16.400   19.48   -0.94   -0.54   0.000   0.200   0.000    0.00
  16.450   19.07   -5.20    0.25   0.000   0.200   0.000    0.00
  16.500   19.19   -3.44   -0.33   0.000   0.200   0.000    0.00
  16.550   18.63   -1.71   -1.10   0.000   0.200   0.000    0.00
  16.600   18.77    0.46   -0.42   0.000   0.200   0.000    0.00
  16.650   19.46    0.09   -0.28   0.000   0.200   0.000    0.00
  16.700   19.16   -0.05   -0.79   0.000   0.200   0.000    0.00
  16.750   19.60    0.02   -1.37   0.000   0.200   0.000    0.00
  16.800   19.77    1.50   -0.79   0.000   0.200   0.000    0.00
  16.850   18.57    2.20    0.15   0.000   0.200   0.000    0.00
  16.900   18.20    0.78    0.82   0.000   0.200   0.000    0.00
  16.950   17.78    2.18   -0.48   0.000   0.200   0.000    0.00
  17.000   17.87   -0.20   -1.57   0.000   0.200   0.000    0.00
  17.050   18.05    3.84   -1.32   0.000   0.200   0.000    0.00
  17.100   17.99    1.01   -0.76   0.000   0.200   0.000    0.00
  17.150   17.91   -1.28   -0.81   0.000   0.200   0.000    0.00
  17.200   18.03   -0.48   -1.08   0.000   0.200   0.000    0.00
  17.250   18.15   -2.72   -1.15   0.000   0.200   0.000    0.00
  17.300   17.61   -5.00   -0.23   0.000   0.200   0.000    0.00
  17.350   17.75   -5.08    0.02   0.000   0.200   0.000    0.00
  17.400   17.35   -4.42    0.24   0.000   0.200   0.000    0.00
  17.450   17.83   -4.80    0.26   0.000   0.200   0.000    0.00
  17.500   17.50   -6.09    0.37   0.000   0.200   0.000    0.00
  17.550   16.75   -5.11    0.54   0.000   0.200   0.000    0.00
  17.600   17.22   -4.21   -0.13   0.000   0.200   0.000    0.00
  17.650   17.32   -5.66    0.55   0.000   0.200   0.000    0.00
  17.700   17.66   -5.08    0.24   0.000   0.200   0.000    0.00
  17.750   17.84   -6.45    0.23   0.000   0.200   0.000    0.00
  17.800   17.84   -8.88    0.00   0.000   0.200   0.000    0.00
  17.850   17.12  -11.81    0.27   0.000   0.200   0.000    0.00
  17.900   17.00  -10.82   -0.44   0.000   0.200   0.000    0.00
  17.950   16.56   -8.35    0.47   0.000   0.200   0.000    0.00
  18.000   16.71   -8.22    0.15   0.000   0.200   0.000    0.00
  18.050   16.27   -9.25    0.59   0.000   0.200   0.000    0.00
  18.100   15.65   -6.64    0.59   0.000   0.200   0.000    0.00
  18.150   15.04   -5.40   -0.43   0.000   0.200   0.000    0.00
  18.200   15.43   -6.74   -0.58   0.000   0.200   0.000    0.00
  18.250   15.86   -2.30   -1.25   0.000   0.200   0.000    0.00
  18.300   15.70   -3.87   -1.25   0.000   0.200   0.000    0.00
  18.350   16.51   -1.74   -1.87   0.000   0.200   0.000    0.00
  18.400   16.22   -1.11   -1.58   0.000   0.200   0.000    0.00
  18.450   16.27    1.24   -1.36   0.000   0.200   0.000    0.00
  18.500   16.29   -0.86   -0.85   0.000   0.200   0.000    0.00
  18.550   16.42    2.33   -0.80   0.000   0.200   0.000    0.00
  18.600   15.73   -0.02    0.34   0.000   0.200   0.000    0.00
  18.650   16.05   -3.86    0.53   0.000   0.200   0.000    0.00
  18.700   16.56   -3.74   -0.36   0.000   0.200   0.000    0.00
  18.750   16.85   -5.51    0.52   0.000   0.200   0.000    0.00
  18.800   16.17   -5.14    1.47   0.000   0.200   0.000    0.00
  18.850   15.96   -7.64    1.47   0.000   0.200   0.000    0.00
  18.900   16.69   -7.56    0.80   0.000   0.200   0.000    0.00
  18.950   17.18   -6.69    0.37   0.000   0.200   0.000    0.00
  19.000   17.46   -5.69    0.37   0.000   0.200   0.000    0.00
  19.050   17.05   -7.01    0.00   0.000   0.200   0.000    0.00
  19.100   16.62   -6.76    0.13   0.000   0.200   0.000    0.00
  19.150   16.89   -3.23    0.02   0.000   0.200   0.000    0.00
  19.200   15.94   -8.25    0.94   0.000   0.200   0.000    0.00
  19.250   16.10   -6.49    0.69   0.000   0.200   0.000    0.00
  19.300   16.39   -5.84    0.44   0.000   0.200   0.000    0.00
  19.350   16.88   -4.68    0.42   0.000   0.200   0.000    0.00
  19.400   17.09   -4.16    1.16   0.000   0.200   0.000    0.00
  19.450   16.90   -4.38    1.70   0.000   0.200   0.000    0.00
  19.500   16.48   -3.53    0.77   0.000   0.200   0.000    0.00
  19.550   16.53   -3.59   -0.20   0.000   0.200   0.000    0.00
  19.600   16.22   -2.70   -0.10   0.000   0.200   0.000    0.00
  19.650   15.80   -1.65    0.05   0.000   0.200   0.000    0.00
  19.700   16.24   -4.40    0.64   0.000   0.200   0.000    0.00
  19.750   15.68   -3.98   -0.06   0.000   0.200   0.000    0.00
  19.800   16.02   -6.71   -0.11   0.000   0.200   0.000    0.00
  19.850   15.72   -5.66   -0.11   0.000   0.200   0.000    0.00
  19.900   15.57   -4.94    0.25   0.000   0.200   0.000    0.00
  19.950   15.36   -9.08    0.12   0.000   0.200   0.000    0.00
  20.000   15.40   -9.35    0.34   0.000   0.200   0.000    0.00
  20.050   14.31  -11.06   -0.44   0.000   0.200   0.000    0.00
  20.100   13.86  -11.68   -1.05   0.000   0.200   0.000    0.00
  20.150   14.12  -13.67   -0.79   0.000   0.200   0.000    0.00
  20.200   14.90  -11.87   -1.47   0.000   0.200   0.000    0.00
  20.250   15.09  -12.95   -1.04   0.000   0.200   0.000    0.00
  20.300   15.15  -13.06   -0.88   0.000   0.200   0.000    0.00
  20.350   15.63  -13.26   -1.49   0.000   0.200   0.000    0.00
  20.400   15.96  -12.25   -1.07   0.000   0.200   0.000    0.00
  20.450   15.91   -7.97    0.11   0.000   0.200   0.000    0.00
  20.500   16.16   -7.63   -1.31   0.000   0.200   0.000    0.00
  20.550   16.42   -8.23   -0.69   0.000   0.200   0.000    0.00
  20.600   17.41   -9.39   -1.34   0.000   0.200   0.000    0.00
  20.650   16.34   -9.48   -1.21   0.000   0.200   0.000    0.00
  20.700   16.18  -10.10   -0.24   0.000   0.200   0.000    0.00
  20.750   15.90   -6.71   -0.63   0.000   0.200   0.000    0.00
  20.800   16.43   -7.45   -1.07   0.000   0.200   0.000    0.00
  20.850   16.12   -7.60   -1.24   0.000   0.200   0.000    0.00
  20.900   16.89   -9.44   -1.63   0.000   0.200   0.000    0.00
  20.950   15.62   -8.10   -2.33   0.000   0.200   0.000    0.00
  21.000   15.24   -6.20   -1.51   0.000   0.200   0.000    0.00
  21.050   14.53   -6.55   -1.01   0.000   0.200   0.000    0.00
  21.100   15.07   -6.26   -0.51   0.000   0.200   0.000    0.00
  21.150   15.41   -8.10   -0.43   0.000   0.200   0.000    0.00
  21.200   14.96  -11.59   -1.12   0.000   0.200   0.000    0.00
  21.250   15.64  -14.26   -0.32   0.000   0.200   0.000    0.00
  21.300   15.56  -11.87   -0.84   0.000   0.200   0.000    0.00
  21.350   16.38  -10.36   -0.23   0.000   0.200   0.000    0.00
  21.400   16.93   -7.74   -0.41   0.000   0.200   0.000    0.00
  21.450   16.42   -5.79   -1.03   0.000   0.200   0.000    0.00
  21.500   16.92   -5.57   -1.74   0.000   0.200   0.000    0.00
  21.550   17.77   -8.53   -1.33   0.000   0.200   0.000    0.00
  21.600   17.42   -7.38   -1.20   0.000   0.200   0.000    0.00
  21.650   17.88   -2.77   -1.51   0.000   0.200   0.000    0.00
  21.700   17.21   -1.99   -1.38   0.000   0.200   0.000    0.00
  21.750   15.96   -2.13   -0.18   0.000   0.200   0.000    0.00
  21.800   15.97   -0.23    0.70   0.000   0.200   0.000    0.00
  21.850   16.99   -1.68    0.91   0.000   0.200   0.000    0.00
  21.900   17.16   -3.03    0.99   0.000   0.200   0.000    0.00
  21.950   16.31    0.63    0.69   0.000   0.200   0.000    0.00
  22.000   16.38    4.95    0.55   0.000   0.200   0.000    0.00
  22.050   16.86    1.54    0.38   0.000   0.200   0.000    0.00
  22.100   17.03   -1.24    0.31   0.000   0.200   0.000    0.00
  22.150   17.41   -1.43    0.78   0.000   0.200   0.000    0.00
  22.200   18.06   -0.92    0.03   0.000   0.200   0.000    0.00
  22.250   18.79    3.29    0.31   0.000   0.200   0.000    0.00
  22.300   18.44    2.26    0.90   0.000   0.200   0.000    0.00
  22.350   18.01    1.82    0.89   0.000   0.200   0.000    0.00