! This hub-height wind-speed file was generated by TurbSim (v1.06.00, 21-Sep-2012) on 16-Jun-2018 at 18:38:11.
!
! The requested statistics for this data were:
!    Mean Total Wind Speed =   23.000 m/s
!    Turbulence Intensity  =   17.433%
!
!   Time  HorSpd  WndDir  VerSpd  HorShr  VerShr  LnVShr  GstSpd
!  (sec)   (m/s)   (deg)   (m/s)     (-)     (-)     (-)   (m/s)
   0.000   22.93    6.22   -3.15   0.000   0.200   0.000    0.00
   0.050   21.90   10.42   -4.27   0.000   0.200   0.000    0.00
   0.100   21.78    9.25   -3.45   0.000   0.200   0.000    0.00
   0.150   22.14    5.49   -3.84   0.000   0.200   0.000    0.00
   0.200   22.75    6.78   -3.19   0.000   0.200   0.000    0.00
   0.250   23.50    0.87   -4.31   0.000   0.200   0.000    0.00
   0.300   24.09    2.82   -4.46   0.000   0.200   0.000    0.00
   0.350   23.84    3.35   -2.98   0.000   0.200   0.000    0.00
   0.400   23.77    1.68   -2.72   0.000   0.200   0.000    0.00
   0.450   23.96    3.88   -2.30   0.000   0.200   0.000    0.00
   0.500   24.48    6.76   -2.62   0.000   0.200   0.000    0.00
   0.550   24.22    6.64   -2.08   0.000   0.200   0.000    0.00
   0.600   25.24    7.56   -2.08   0.000   0.200   0.000    0.00
   0.650   26.00    2.57   -1.54   0.000   0.200   0.000    0.00
   0.700   26.61   -0.78   -1.33   0.000   0.200   0.000    0.00
   0.750   28.18    1.85   -0.76   0.000   0.200   0.000    0.00
   0.800   28.02    1.96   -1.41   0.000   0.200   0.000    0.00
   0.850   27.45    1.31   -2.03   0.000   0.200   0.000    0.00
   0.900   26.98    2.18   -0.07   0.000   0.200   0.000    0.00
   0.950   25.59    4.49    0.22   0.000   0.200   0.000    0.00
   1.000   25.67    2.61   -0.94   0.000   0.200   0.000    0.00
   1.050   25.47    4.24   -0.74   0.000   0.200   0.000    0.00
   1.100   24.62    3.50    0.49   0.000   0.200   0.000    0.00
   1.150   25.11    6.18    0.75   0.000   0.200   0.000    0.00
   1.200   25.68    8.07    0.24   0.000   0.200   0.000    0.00
   1.250   24.87   10.86   -0.14   0.000   0.200   0.000    0.00
   1.300   24.41    7.99    0.17   0.000   0.200   0.000    0.00
   1.350   24.51    7.70    0.12   0.000   0.200   0.000    0.00
   1.400   23.24    7.32   -0.97   0.000   0.200   0.000    0.00
   1.450   23.34    8.91   -1.37   0.000   0.200   0.000    0.00
   1.500   23.09    7.20   -2.25   0.000   0.200   0.000    0.00
   1.550   24.11    5.25   -3.98   0.000   0.200   0.000    0.00
   1.600   24.86    5.24   -5.13   0.000   0.200   0.000    0.00
   1.650   23.30    7.43   -4.64   0.000   0.200   0.000    0.00
   1.700   23.06    5.39   -3.45   0.000   0.200   0.000    0.00
   1.750   24.25    5.70   -2.68   0.000   0.200   0.000    0.00
   1.800   25.14    4.97   -1.35   0.000   0.200   0.000    0.00
   1.850   25.22    6.00   -1.24   0.000   0.200   0.000    0.00
   1.900   25.62    9.73   -0.53   0.000   0.200   0.000    0.00
   1.950   25.44    8.10   -1.40   0.000   0.200   0.000    0.00
   2.000   24.99    6.47   -1.18   0.000   0.200   0.000    0.00
   2.050   25.14    6.87    0.01   0.000   0.200   0.000    0.00
   2.100   23.99    3.08    1.05   0.000   0.200   0.000    0.00
   2.150   23.36    4.96    1.99   0.000   0.200   0.000    0.00
   2.200   24.10    6.75    3.87   0.000   0.200   0.000    0.00
   2.250   23.31    2.43    4.63   0.000   0.200   0.000    0.00
   2.300   23.47    4.29    3.44   0.000   0.200   0.000    0.00
   2.350   22.96    5.33    1.91   0.000   0.200   0.000    0.00
   2.400   22.38    4.13    1.98   0.000   0.200   0.000    0.00
   2.450   22.21   -0.54    1.41   0.000   0.200   0.000    0.00
   2.500   22.40   -0.20    0.64   0.000   0.200   0.000    0.00
   2.550   23.45   -1.02   -0.11   0.000   0.200   0.000    0.00
   2.600   23.68    0.46    0.41   0.000   0.200   0.000    0.00
   2.650   24.70    1.10    1.05   0.000   0.200   0.000    0.00
   2.700   24.95   -0.22    0.96   0.000   0.200   0.000    0.00
   2.750   25.03   -2.43    0.73   0.000   0.200   0.000    0.00
   2.800   23.19   -0.89    1.42   0.000   0.200   0.000    0.00
   2.850   23.22    0.32    1.15   0.000   0.200   0.000    0.00
   2.900   22.36    3.71    1.27   0.000   0.200   0.000    0.00
   2.950   21.56    2.88    2.16   0.000   0.200   0.000    0.00
   3.000   22.19    0.27    2.07   0.000   0.200   0.000    0.00
   3.050   21.83    1.07    2.82   0.000   0.200   0.000    0.00
   3.100   21.77    1.57    2.39   0.000   0.200   0.000    0.00
   3.150   23.22   -0.09    5.07   0.000   0.200   0.000    0.00
   3.200   22.42    0.27    4.31   0.000   0.200   0.000    0.00
   3.250   21.81   -0.57    5.14   0.000   0.200   0.000    0.00
   3.300   21.68   -1.98    6.32   0.000   0.200   0.000    0.00
   3.350   21.82    0.74    6.31   0.000   0.200   0.000    0.00
   3.400   21.59    2.03    5.44   0.000   0.200   0.000    0.00
   3.450   21.39    2.29    4.95   0.000   0.200   0.000    0.00
   3.500   20.35    1.15    4.84   0.000   0.200   0.000    0.00
   3.550   20.25    0.35    4.59   0.000   0.200   0.000    0.00
   3.600   20.20   -2.29    3.05   0.000   0.200   0.000    0.00
   3.650   21.55   -3.70    2.51   0.000   0.200   0.000    0.00
   3.700   22.46   -4.83    2.77   0.000   0.200   0.000    0.00
   3.750   22.11    0.18    2.62   0.000   0.200   0.000    0.00
   3.800   23.02    1.42    1.64   0.000   0.200   0.000    0.00
   3.850   22.83   -0.32    2.81   0.000   0.200   0.000    0.00
   3.900   22.20    0.88    2.17   0.000   0.200   0.000    0.00
   3.950   22.94    0.96    2.39   0.000   0.200   0.000    0.00
   4.000   23.42    0.99    3.02   0.000   0.200   0.000    0.00
   4.050   23.58    2.63    3.02   0.000   0.200   0.000    0.00
   4.100   24.35    0.14    3.11   0.000   0.200   0.000    0.00
   4.150   24.64   -1.54    2.36   0.000   0.200   0.000    0.00
   4.200   24.06   -2.23    3.18   0.000   0.200   0.000    0.00
   4.250   25.15    1.10    3.44   0.000   0.200   0.000    0.00
   4.300   24.91   -0.98    3.86   0.000   0.200   0.000    0.00
   4.350   25.49   -0.85    4.09   0.000   0.200   0.000    0.00
   4.400   25.30   -1.16    3.85   0.000   0.200   0.000    0.00
   4.450   24.43   -2.70    3.15   0.000   0.200   0.000    0.00
   4.500   24.04   -2.66    1.67   0.000   0.200   0.000    0.00
   4.550   24.21   -4.14    1.20   0.000   0.200   0.000    0.00
   4.600   24.78   -4.70   -0.41   0.000   0.200   0.000    0.00
   4.650   23.36   -2.00    1.75   0.000   0.200   0.000    0.00
   4.700   21.71    2.26    0.63   0.000   0.200   0.000    0.00
   4.750   22.22    0.38    1.84   0.000   0.200   0.000    0.00
   4.800   21.94   -0.77    1.47   0.000   0.200   0.000    0.00
   4.850   21.29    2.10    1.47   0.000   0.200   0.000    0.00
   4.900   20.78   -0.39    2.88   0.000   0.200   0.000    0.00
   4.950   21.07   -0.32    2.62   0.000   0.200   0.000    0.00
   5.000   20.87    1.84    2.49   0.000   0.200   0.000    0.00
   5.050   21.33    3.10    0.96   0.000   0.200   0.000    0.00
   5.100   20.91   -1.18    0.33   0.000   0.200   0.000    0.00
   5.150   20.22   -0.45    0.23   0.000   0.200   0.000    0.00
   5.200   22.07   -0.02    0.59   0.000   0.200   0.000    0.00
   5.250   21.02    0.21    1.84   0.000   0.200   0.000    0.00
   5.300   19.93    3.58    2.65   0.000   0.200   0.000    0.00
   5.350   20.96    5.07    1.50   0.000   0.200   0.000    0.00
   5.400   21.59    4.71    2.56   0.000   0.200   0.000    0.00
   5.450   20.33    3.46    2.77   0.000   0.200   0.000    0.00
   5.500   20.56    1.90    1.41   0.000   0.200   0.000    0.00
   5.550   20.16    1.29    2.11   0.000   0.200   0.000    0.00
   5.600   20.12    5.95    2.17   0.000   0.200   0.000    0.00
   5.650   20.71    9.01    2.46   0.000   0.200   0.000    0.00
   5.700   20.92   10.07    2.66   0.000   0.200   0.000    0.00
   5.750   21.14   12.71    2.18   0.000   0.200   0.000    0.00
   5.800   22.44   19.78    0.40   0.000   0.200   0.000    0.00
   5.850   22.39   16.03   -0.14   0.000   0.200   0.000    0.00
   5.900   21.75   16.25    0.32   0.000   0.200   0.000    0.00
   5.950   21.73   17.62   -1.15   0.000   0.200   0.000    0.00
   6.000   20.59   17.76   -0.95   0.000   0.200   0.000    0.00
   6.050   20.85   16.87   -1.57   0.000   0.200   0.000    0.00
   6.100   20.24   16.93   -1.25   0.000   0.200   0.000    0.00
   6.150   20.28   14.80   -0.99   0.000   0.200   0.000    0.00
   6.200   19.97   14.57    0.74   0.000   0.200   0.000    0.00
   6.250   20.19   14.22   -0.18   0.000   0.200   0.000    0.00
   6.300   19.63   15.00   -0.65   0.000   0.200   0.000    0.00
   6.350   19.44   12.05   -0.81   0.000   0.200   0.000    0.00
   6.400   18.85   16.22   -1.14   0.000   0.200   0.000    0.00
   6.450   18.35   16.85   -1.01   0.000   0.200   0.000    0.00
   6.500   17.94   12.52   -1.46   0.000   0.200   0.000    0.00
   6.550   16.00   12.26   -2.98   0.000   0.200   0.000    0.00
   6.600   15.97   12.00   -1.31   0.000   0.200   0.000    0.00
   6.650   16.99   10.76   -1.72   0.000   0.200   0.000    0.00
   6.700   17.39   10.92   -0.04   0.000   0.200   0.000    0.00
   6.750   18.21   11.12    1.42   0.000   0.200   0.000    0.00
   6.800   17.61   13.74    1.15   0.000   0.200   0.000    0.00
   6.850   19.68   18.19    1.66   0.000   0.200   0.000    0.00
   6.900   19.05   18.81   -0.25   0.000   0.200   0.000    0.00
   6.950   20.53   22.70   -0.89   0.000   0.200   0.000    0.00
   7.000   20.06   25.60   -0.99   0.000   0.200   0.000    0.00
   7.050   21.09   27.46   -0.81   0.000   0.200   0.000    0.00
   7.100   21.57   25.23   -2.19   0.000   0.200   0.000    0.00
   7.150   21.45   23.10   -1.32   0.000   0.200   0.000    0.00
   7.200   21.60   23.19    0.28   0.000   0.200   0.000    0.00
   7.250   19.49   20.82   -0.08   0.000   0.200   0.000    0.00
   7.300   20.31   16.99    0.78   0.000   0.200   0.000    0.00
   7.350   21.41   16.46    1.21   0.000   0.200   0.000    0.00
   7.400   21.57   18.81    0.78   0.000   0.200   0.000    0.00
   7.450   22.62   18.67    1.48   0.000   0.200   0.000    0.00
   7.500   22.53   20.12    0.99   0.000   0.200   0.000    0.00
   7.550   21.94   16.78    2.52   0.000   0.200   0.000    0.00
   7.600   21.33   12.69    3.12   0.000   0.200   0.000    0.00
   7.650   21.58   17.37    3.32   0.000   0.200   0.000    0.00
   7.700   19.73   13.80    4.36   0.000   0.200   0.000    0.00
   7.750   19.47   13.62    4.07   0.000   0.200   0.000    0.00
   7.800   19.33   10.31    3.27   0.000   0.200   0.000    0.00
   7.850   20.08    9.79    2.90   0.000   0.200   0.000    0.00
   7.900   21.24   10.07    2.86   0.000   0.200   0.000    0.00
   7.950   20.69    8.42    2.50   0.000   0.200   0.000    0.00
   8.000   21.36    7.57    3.35   0.000   0.200   0.000    0.00
   8.050   21.42    5.74    2.09   0.000   0.200   0.000    0.00
   8.100   21.85    8.12    0.69   0.000   0.200   0.000    0.00
   8.150   21.83    7.04    2.48   0.000   0.200   0.000    0.00
   8.200   20.29    4.78    2.89   0.000   0.200   0.000    0.00
   8.250   21.14    3.66    1.77   0.000   0.200   0.000    0.00
   8.300   22.81    3.72    0.58   0.000   0.200   0.000    0.00
   8.350   21.88    5.72   -0.09   0.000   0.200   0.000    0.00
   8.400   21.52    1.55    0.74   0.000   0.200   0.000    0.00
   8.450   22.60    5.94    1.37   0.000   0.200   0.000    0.00
   8.500   22.43    5.52    2.69   0.000   0.200   0.000    0.00
   8.550   21.60    3.76    3.65   0.000   0.200   0.000    0.00
   8.600   22.14    5.27    1.83   0.000   0.200   0.000    0.00
   8.650   22.53    3.88    2.54   0.000   0.200   0.000    0.00
   8.700   22.73    2.22    2.92   0.000   0.200   0.000    0.00
   8.750   21.78    1.04    3.23   0.000   0.200   0.000    0.00
   8.800   21.86    0.86    2.41   0.000   0.200   0.000    0.00
   8.850   21.55    0.58    1.96   0.000   0.200   0.000    0.00
   8.900   22.32   -1.00    1.95   0.000   0.200   0.000    0.00
   8.950   22.14    1.60    0.93   0.000   0.200   0.000    0.00
   9.000   21.19    1.33    1.93   0.000   0.200   0.000    0.00
   9.050   21.80    5.21    2.56   0.000   0.200   0.000    0.00
   9.100   22.03    1.31    2.14   0.000   0.200   0.000    0.00
   9.150   21.52    1.08    2.37   0.000   0.200   0.000    0.00
   9.200   21.68    1.74    3.36   0.000   0.200   0.000    0.00
   9.250   22.14   -0.05    1.99   0.000   0.200   0.000    0.00
   9.300   22.17   -0.01    2.18   0.000   0.200   0.000    0.00
   9.350   21.32   -2.28    1.63   0.000   0.200   0.000    0.00
   9.400   21.01    1.46    1.92   0.000   0.200   0.000    0.00
   9.450   20.40    3.99    2.51   0.000   0.200   0.000    0.00
   9.500   21.30    4.89    1.64   0.000   0.200   0.000    0.00
   9.550   21.21    3.80    2.34   0.000   0.200   0.000    0.00
   9.600   22.35    2.59    2.76   0.000   0.200   0.000    0.00
   9.650   21.63    3.60    3.00   0.000   0.200   0.000    0.00
   9.700   20.20    4.30    1.77   0.000   0.200   0.000    0.00
   9.750   20.14    3.45   -0.58   0.000   0.200   0.000    0.00
   9.800   18.73    4.52   -0.55   0.000   0.200   0.000    0.00
   9.850   17.96    3.86   -1.11   0.000   0.200   0.000    0.00
   9.900   17.90    5.77   -0.25   0.000   0.200   0.000    0.00
   9.950   17.53   10.10   -0.41   0.000   0.200   0.000    0.00
  10.000   17.58   14.54    0.14   0.000   0.200   0.000    0.00
  10.050   16.85   15.64   -0.74   0.000   0.200   0.000    0.00
  10.100   17.75   17.94   -0.84   0.000   0.200   0.000    0.00
  10.150   18.79   12.72    0.35   0.000   0.200   0.000    0.00
  10.200   19.45    8.74    0.09   0.000   0.200   0.000    0.00
  10.250   18.83    6.37    1.63   0.000   0.200   0.000    0.00
  10.300   19.20    5.60    2.51   0.000   0.200   0.000    0.00
  10.350   19.03    5.04    1.26   0.000   0.200   0.000    0.00
  10.400   19.83    4.58    0.30   0.000   0.200   0.000    0.00
  10.450   19.58    6.58    2.54   0.000   0.200   0.000    0.00
  10.500   20.27   11.02    2.20   0.000   0.200   0.000    0.00
  10.550   20.20    9.88    2.04   0.000   0.200   0.000    0.00
  10.600   20.07   11.09    2.86   0.000   0.200   0.000    0.00
  10.650   19.52   13.40    3.62   0.000   0.200   0.000    0.00
  10.700   19.34   15.78    3.36   0.000   0.200   0.000    0.00
  10.750   19.88   10.71    2.67   0.000   0.200   0.000    0.00
  10.800   19.75   15.04    2.09   0.000   0.200   0.000    0.00
  10.850   18.98   15.26    0.74   0.000   0.200   0.000    0.00
  10.900   19.32   13.55    0.94   0.000   0.200   0.000    0.00
  10.950   20.55   15.92    1.20   0.000   0.200   0.000    0.00
  11.000   18.56   13.54    1.49   0.000   0.200   0.000    0.00
  11.050   19.10   13.92    0.33   0.000   0.200   0.000    0.00
  11.100   20.08   18.14    0.20   0.000   0.200   0.000    0.00
  11.150   19.39   16.93    0.57   0.000   0.200   0.000    0.00
  11.200   18.57   16.30    1.26   0.000   0.200   0.000    0.00
  11.250   18.56   18.62    1.16   0.000   0.200   0.000    0.00
  11.300   19.51   20.77    1.13   0.000   0.200   0.000    0.00
  11.350   19.08   21.26    1.67   0.000   0.200   0.000    0.00
  11.400   18.61   21.00    1.14   0.000   0.200   0.000    0.00
  11.450   17.69   20.09    0.10   0.000   0.200   0.000    0.00
  11.500   17.75   23.21   -0.30   0.000   0.200   0.000    0.00
  11.550   19.90   21.40    0.14   0.000   0.200   0.000    0.00
  11.600   18.58   17.17    0.32   0.000   0.200   0.000    0.00
  11.650   19.77   16.62   -0.74   0.000   0.200   0.000    0.00
  11.700   19.03   14.14   -0.81   0.000   0.200   0.000    0.00
  11.750   18.99   14.63   -0.90   0.000   0.200   0.000    0.00
  11.800   19.52   13.13   -1.45   0.000   0.200   0.000    0.00
  11.850   19.16    9.35   -1.65   0.000   0.200   0.000    0.00
  11.900   19.86   12.64   -0.44   0.000   0.200   0.000    0.00
  11.950   18.53    8.98   -0.49   0.000   0.200   0.000    0.00
  12.000   18.97    7.84   -0.77   0.000   0.200   0.000    0.00
  12.050   18.15    9.08    0.06   0.000   0.200   0.000    0.00
  12.100   18.03    8.23    0.77   0.000   0.200   0.000    0.00
  12.150   18.19    2.91    1.65   0.000   0.200   0.000    0.00
  12.200   18.44    2.61    1.06   0.000   0.200   0.000    0.00
  12.250   18.59    3.40    0.90   0.000   0.200   0.000    0.00
  12.300   18.82    2.46    0.88   0.000   0.200   0.000    0.00
  12.350   19.38    3.45    0.40   0.000   0.200   0.000    0.00
  12.400   19.80   -0.24    1.74   0.000   0.200   0.000    0.00
  12.450   18.98    0.12    1.98   0.000   0.200   0.000    0.00
  12.500   17.71    1.49    2.06   0.000   0.200   0.000    0.00
  12.550   16.31    8.59    1.87   0.000   0.200   0.000    0.00
  12.600   16.47   10.24    2.46   0.000   0.200   0.000    0.00
  12.650   15.63   16.14    3.13   0.000   0.200   0.000    0.00
  12.700   15.47   13.76    1.88   0.000   0.200   0.000    0.00
  12.750   16.23   12.88    1.69   0.000   0.200   0.000    0.00
  12.800   15.95   14.48    1.66   0.000   0.200   0.000    0.00
  12.850   15.71   14.86    1.10   0.000   0.200   0.000    0.00
  12.900   15.14    9.94    0.86   0.000   0.200   0.000    0.00
  12.950   15.09   10.77    0.68   0.000   0.200   0.000    0.00
  13.000   15.06   11.35    0.22   0.000   0.200   0.000    0.00
  13.050   13.25    9.78    1.95   0.000   0.200   0.000    0.00
  13.100   14.40    6.59   -0.52   0.000   0.200   0.000    0.00
  13.150   13.86    3.36   -0.23   0.000   0.200   0.000    0.00
  13.200   15.14    6.86   -0.29   0.000   0.200   0.000    0.00
  13.250   16.18    3.65   -0.85   0.000   0.200   0.000    0.00
  13.300   18.03    5.56   -1.47   0.000   0.200   0.000    0.00
  13.350   16.54    2.59   -0.78   0.000   0.200   0.000    0.00
  13.400   16.92    3.59   -2.00   0.000   0.200   0.000    0.00
  13.450   16.55    3.18   -2.17   0.000   0.200   0.000    0.00
  13.500   16.87    4.46   -2.37   0.000   0.200   0.000    0.00
  13.550   17.36    3.23   -3.54   0.000   0.200   0.000    0.00
  13.600   17.15    0.32   -4.18   0.000   0.200   0.000    0.00
  13.650   15.78    0.62   -2.71   0.000   0.200   0.000    0.00
  13.700   15.74    1.99   -1.82   0.000   0.200   0.000    0.00
  13.750   14.86    6.47   -2.01   0.000   0.200   0.000    0.00
  13.800   14.13    7.71   -1.36   0.000   0.200   0.000    0.00
  13.850   14.49    1.63   -1.96   0.000   0.200   0.000    0.00
  13.900   16.06    1.04   -2.55   0.000   0.200   0.000    0.00
  13.950   16.31   -4.86   -3.51   0.000   0.200   0.000    0.00
  14.000   15.70   -3.15   -3.62   0.000   0.200   0.000    0.00
  14.050   15.34   -2.18   -2.78   0.000   0.200   0.000    0.00
  14.100   15.56   -6.41   -3.59   0.000   0.200   0.000    0.00
  14.150   15.17   -5.71   -3.23   0.000   0.200   0.000    0.00
  14.200   15.73   -2.17   -2.85   0.000   0.200   0.000    0.00
  14.250   17.12   -0.05   -3.35   0.000   0.200   0.000    0.00
  14.300   16.36    0.16   -3.22   0.000   0.200   0.000    0.00
  14.350   18.02    0.79   -1.10   0.000   0.200   0.000    0.00
  14.400   18.11    1.94   -0.30   0.000   0.200   0.000    0.00
  14.450   17.06    0.15    0.88   0.000   0.200   0.000    0.00
  14.500   18.05   -1.45   -0.19   0.000   0.200   0.000    0.00
  14.550   17.38    1.74   -1.87   0.000   0.200   0.000    0.00
  14.600   16.72    5.39   -0.97   0.000   0.200   0.000    0.00
  14.650   15.24   12.09   -1.48   0.000   0.200   0.000    0.00
  14.700   15.65   13.90   -2.06   0.000   0.200   0.000    0.00
  14.750   15.42    9.53   -2.24   0.000   0.200   0.000    0.00
  14.800   15.38    7.63   -3.04   0.000   0.200   0.000    0.00
  14.850   15.41    3.69   -3.50   0.000   0.200   0.000    0.00
  14.900   16.84    4.41   -1.88   0.000   0.200   0.000    0.00
  14.950   16.26    5.08   -2.21   0.000   0.200   0.000    0.00
  15.000   17.86    8.17   -1.19   0.000   0.200   0.000    0.00
  15.050   18.14   11.62    0.97   0.000   0.200   0.000    0.00
  15.100   18.79   12.82    1.85   0.000   0.200   0.000    0.00
  15.150   20.62   10.76    2.79   0.000   0.200   0.000    0.00
  15.200   18.81   10.49    2.88   0.000   0.200   0.000    0.00
  15.250   18.53    9.47    2.42   0.000   0.200   0.000    0.00
  15.300   18.36    9.53    1.11   0.000   0.200   0.000    0.00
  15.350   18.83    9.32    0.61   0.000   0.200   0.000    0.00
  15.400   18.49    9.14   -0.29   0.000   0.200   0.000    0.00
  15.450   18.78   11.50   -0.31   0.000   0.200   0.000    0.00
  15.500   19.16   14.05    1.11   0.000   0.200   0.000    0.00
  15.550   18.77   13.86    0.56   0.000   0.200   0.000    0.00
  15.600   18.83    8.92   -0.98   0.000   0.200   0.000    0.00
  15.650   19.50    7.19    0.21   0.000   0.200   0.000    0.00
  15.700   20.47    8.42    0.33   0.000   0.200   0.000    0.00
  15.750   21.54    7.05   -0.48   0.000   0.200   0.000    0.00
  15.800   21.32    0.70   -0.91   0.000   0.200   0.000    0.00
  15.850   22.08    2.71   -0.10   0.000   0.200   0.000    0.00
  15.900   22.83    2.72    0.19   0.000   0.200   0.000    0.00
  15.950   23.94   -0.13    0.64   0.000   0.200   0.000    0.00
  16.000   22.62    0.80   -0.18   0.000   0.200   0.000    0.00
  16.050   23.04   -0.28   -0.05   0.000   0.200   0.000    0.00
  16.100   23.67   -5.79   -1.14   0.000   0.200   0.000    0.00
  16.150   25.39   -5.34   -0.63   0.000   0.200   0.000    0.00
  16.200   25.82  -10.38   -0.28   0.000   0.200   0.000    0.00
  16.250   23.94   -8.90    1.81   0.000   0.200   0.000    0.00
  16.300   22.76   -4.74    1.43   0.000   0.200   0.000    0.00
  16.350   22.86   -0.53   -0.27   0.000   0.200   0.000    0.00
  16.400   24.38   -1.06   -0.80   0.000   0.200   0.000    0.00
  16.450   23.78   -6.30    0.43   0.000   0.200   0.000    0.00
  16.500   23.96   -4.13   -0.47   0.000   0.200   0.000    0.00
  16.550   23.08   -2.00   -1.64   0.000   0.200   0.000    0.00
  16.600   23.29    0.68   -0.59   0.000   0.200   0.000    0.00
  16.650   24.36    0.22   -0.37   0.000   0.200   0.000    0.00
  16.700   23.90    0.07   -1.15   0.000   0.200   0.000    0.00
  16.750   24.56    0.15   -2.04   0.000   0.200   0.000    0.00
  16.800   24.83    1.96   -1.16   0.000   0.200   0.000    0.00
  16.850   22.97    2.88    0.28   0.000   0.200   0.000    0.00
  16.900   22.39    1.13    1.31   0.000   0.200   0.000    0.00
  16.950   21.74    2.92   -0.68   0.000   0.200   0.000    0.00
  17.000   21.86   -0.08   -2.35   0.000   0.200   0.000    0.00
  17.050   22.14    5.00   -1.96   0.000   0.200   0.000    0.00
  17.100   22.02    1.47   -1.11   0.000   0.200   0.000    0.00
  17.150   21.88   -1.39   -1.18   0.000   0.200   0.000    0.00
  17.200   22.05   -0.36   -1.60   0.000   0.200   0.000    0.00
  17.250   22.24   -3.17   -1.71   0.000   0.200   0.000    0.00
  17.300   21.40   -6.05   -0.30   0.000   0.200   0.000    0.00
  17.350   21.60   -6.14    0.06   0.000   0.200   0.000    0.00
  17.400   20.96   -5.31    0.40   0.000   0.200   0.000    0.00
  17.450   21.70   -5.75    0.43   0.000   0.200   0.000    0.00
  17.500   21.19   -7.41    0.59   0.000   0.200   0.000    0.00
  17.550   20.01   -6.21    0.85   0.000   0.200   0.000    0.00
  17.600   20.71   -5.02   -0.18   0.000   0.200   0.000    0.00
  17.650   20.86   -6.86    0.86   0.000   0.200   0.000    0.00
  17.700   21.36   -6.08    0.39   0.000   0.200   0.000    0.00
  17.750   21.64   -7.80    0.38   0.000   0.200   0.000    0.00
  17.800   21.66  -10.87    0.03   0.000   0.200   0.000    0.00
  17.850   20.59  -14.72    0.43   0.000   0.200   0.000    0.00
  17.900   20.38  -13.48   -0.65   0.000   0.200   0.000    0.00
  17.950   19.64  -10.38    0.74   0.000   0.200   0.000    0.00
  18.000   19.88  -10.18    0.26   0.000   0.200   0.000    0.00
  18.050   19.22  -11.60    0.93   0.000   0.200   0.000    0.00
  18.100   18.23   -8.27    0.93   0.000   0.200   0.000    0.00
  18.150   17.27   -6.71   -0.62   0.000   0.200   0.000    0.00
  18.200   17.90   -8.44   -0.85   0.000   0.200   0.000    0.00
  18.250   18.55   -2.54   -1.86   0.000   0.200   0.000    0.00
  18.300   18.32   -4.62   -1.85   0.000   0.200   0.000    0.00
  18.350   19.57   -1.81   -2.80   0.000   0.200   0.000    0.00
  18.400   19.14   -0.98   -2.36   0.000   0.200   0.000    0.00
  18.450   19.24    2.08   -2.03   0.000   0.200   0.000    0.00
  18.500   19.28   -0.65   -1.25   0.000   0.200   0.000    0.00
  18.550   19.52    3.48   -1.19   0.000   0.200   0.000    0.00
  18.600   18.46    0.48    0.54   0.000   0.200   0.000    0.00
  18.650   18.97   -4.51    0.83   0.000   0.200   0.000    0.00
  18.700   19.76   -4.31   -0.54   0.000   0.200   0.000    0.00
  18.750   20.23   -6.56    0.80   0.000   0.200   0.000    0.00
  18.800   19.19   -6.13    2.24   0.000   0.200   0.000    0.00
  18.850   18.89   -9.38    2.25   0.000   0.200   0.000    0.00
  18.900   20.00   -9.18    1.21   0.000   0.200   0.000    0.00
  18.950   20.72   -8.00    0.56   0.000   0.200   0.000    0.00
  19.000   21.13   -6.71    0.55   0.000   0.200   0.000    0.00
  19.050   20.50   -8.43   -0.01   0.000   0.200   0.000    0.00
  19.100   19.81   -8.16    0.19   0.000   0.200   0.000    0.00
  19.150   20.17   -3.60    0.03   0.000   0.200   0.000    0.00
  19.200   18.72  -10.21    1.42   0.000   0.200   0.000    0.00
  19.250   18.92   -7.89    1.05   0.000   0.200   0.000    0.00
  19.300   19.34   -7.01    0.66   0.000   0.200   0.000    0.00
  19.350   20.05   -5.48    0.63   0.000   0.200   0.000    0.00
  19.400   20.35   -4.80    1.76   0.000   0.200   0.000    0.00
  19.450   20.03   -5.10    2.59   0.000   0.200   0.000    0.00
  19.500   19.36   -4.02    1.18   0.000   0.200   0.000    0.00
  19.550   19.40   -4.09   -0.30   0.000   0.200   0.000    0.00
  19.600   18.91   -2.92   -0.15   0.000   0.200   0.000    0.00
  19.650   18.22   -1.53    0.09   0.000   0.200   0.000    0.00
  19.700   18.89   -5.17    1.00   0.000   0.200   0.000    0.00
  19.750   17.99   -4.64   -0.07   0.000   0.200   0.000    0.00
  19.800   18.51   -8.25   -0.15   0.000   0.200   0.000    0.00
  19.850   18.01   -6.88   -0.14   0.000   0.200   0.000    0.00
  19.900   17.75   -5.92    0.41   0.000   0.200   0.000    0.00
  19.950   17.46  -11.54    0.22   0.000   0.200   0.000    0.00
  20.000   17.49  -11.91    0.57   0.000   0.200   0.000    0.00
  20.050   15.84  -14.55   -0.62   0.000   0.200   0.000    0.00
  20.100   15.15  -15.57   -1.54   0.000   0.200   0.000    0.00
  20.150   15.58  -18.26   -1.14   0.000   0.200   0.000    0.00
  20.200   16.71  -15.48   -2.18   0.000   0.200   0.000    0.00
  20.250   17.02  -16.89   -1.51   0.000   0.200   0.000    0.00
  20.300   17.12  -17.01   -1.25   0.000   0.200   0.000    0.00
  20.350   17.84  -17.12   -2.20   0.000   0.200   0.000    0.00
  20.400   18.32  -15.68   -1.56   0.000   0.200   0.000    0.00
  20.450   18.16   -9.94    0.26   0.000   0.200   0.000    0.00
  20.500   18.53   -9.46   -1.91   0.000   0.200   0.000    0.00
  20.550   18.94  -10.21   -0.96   0.000   0.200   0.000    0.00
  20.600   20.48  -11.58   -1.95   0.000   0.200   0.000    0.00
  20.650   18.84  -11.89   -1.76   0.000   0.200   0.000    0.00
  20.700   18.60  -12.76   -0.27   0.000   0.200   0.000    0.00
  20.750   18.11   -8.26   -0.87   0.000   0.200   0.000    0.00
  20.800   18.92   -9.19   -1.54   0.000   0.200   0.000    0.00
  20.850   18.44   -9.44   -1.80   0.000   0.200   0.000    0.00
  20.900   19.66  -11.76   -2.39   0.000   0.200   0.000    0.00
  20.950   17.68  -10.20   -3.46   0.000   0.200   0.000    0.00
  21.000   17.06   -7.68   -2.20   0.000   0.200   0.000    0.00
  21.050   15.96   -8.28   -1.44   0.000   0.200   0.000    0.00
  21.100   16.79   -7.80   -0.69   0.000   0.200   0.000    0.00
  21.150   17.33  -10.26   -0.57   0.000   0.200   0.000    0.00
  21.200   16.71  -15.15   -1.63   0.000   0.200   0.000    0.00
  21.250   17.83  -18.54   -0.40   0.000   0.200   0.000    0.00
  21.300   17.64  -15.34   -1.21   0.000   0.200   0.000    0.00
  21.350   18.86  -13.11   -0.28   0.000   0.200   0.000    0.00
  21.400   19.67   -9.55   -0.54   0.000   0.200   0.000    0.00
  21.450   18.87   -7.02   -1.50   0.000   0.200   0.000    0.00
  21.500   19.64   -6.68   -2.59   0.000   0.200   0.000    0.00
  21.550   20.98  -10.48   -1.96   0.000   0.200   0.000    0.00
  21.600   20.44   -9.03   -1.77   0.000   0.200   0.000    0.00
  21.650   21.12   -3.00   -2.25   0.000   0.200   0.000    0.00
  21.700   20.10   -1.99   -2.05   0.000   0.200   0.000    0.00
  21.750   18.17   -2.19   -0.24   0.000   0.200   0.000    0.00
  21.800   18.20    0.36    1.11   0.000   0.200   0.000    0.00
  21.850   19.77   -1.61    1.40   0.000   0.200   0.000    0.00
  21.900   20.03   -3.39    1.53   0.000   0.200   0.000    0.00
  21.950   18.74    1.47    1.06   0.000   0.200   0.000    0.00
  22.000   18.89    7.21    0.84   0.000   0.200   0.000    0.00
  22.050   19.58    2.62    0.58   0.000   0.200   0.000    0.00
  22.100   19.82   -1.06    0.47   0.000   0.200   0.000    0.00
  22.150   20.40   -1.32    1.18   0.000   0.200   0.000    0.00
  22.200   21.40   -0.66    0.03   0.000   0.200   0.000    0.00
  22.250   22.56    4.70    0.47   0.000   0.200   0.000    0.00
  22.300   22.00    3.41    1.37   0.000   0.200   0.000    0.00
  22.350   21.34    2.87    1.36   0.000   0.200   0.000    0.00