! This hub-height wind-speed file was generated by TurbSim (v1.06.00, 21-Sep-2012) on 16-Jun-2018 at 18:32:50.
!
! The requested statistics for this data were:
!    Mean Total Wind Speed =    9.000 m/s
!    Turbulence Intensity  =   19.211%
!
!   Time  HorSpd  WndDir  VerSpd  HorShr  VerShr  LnVShr  GstSpd
!  (sec)   (m/s)   (deg)   (m/s)     (-)     (-)     (-)   (m/s)
   0.000    9.51   -7.17    0.21   0.000   0.200   0.000    0.00
   0.050    9.60   -6.33    0.11   0.000   0.200   0.000    0.00
   0.100    9.72   -4.48    0.04   0.000   0.200   0.000    0.00
   0.150    9.35   -9.32    0.35   0.000   0.200   0.000    0.00
   0.200    9.20   -6.93    0.75   0.000   0.200   0.000    0.00
   0.250    9.16   -4.01    0.83   0.000   0.200   0.000    0.00
   0.300    9.31   -2.65    1.04   0.000   0.200   0.000    0.00
   0.350    9.10   -2.44    0.80   0.000   0.200   0.000    0.00
   0.400    9.29   -2.51    0.67   0.000   0.200   0.000    0.00
   0.450    9.74   -2.23    0.55   0.000   0.200   0.000    0.00
   0.500    9.79   -1.63    0.38   0.000   0.200   0.000    0.00
   0.550    9.69   -3.23    0.36   0.000   0.200   0.000    0.00
   0.600    9.29   -1.76    0.69   0.000   0.200   0.000    0.00
   0.650    9.53   -0.77    0.45   0.000   0.200   0.000    0.00
   0.700    9.50   -0.29    0.10   0.000   0.200   0.000    0.00
   0.750    9.65    0.12   -0.12   0.000   0.200   0.000    0.00
   0.800    9.92   -0.23    0.03   0.000   0.200   0.000    0.00
   0.850    9.72    0.53    0.07   0.000   0.200   0.000    0.00
   0.900    9.78    0.21    0.16   0.000   0.200   0.000    0.00
   0.950    9.43    2.73    0.64   0.000   0.200   0.000    0.00
   1.000    9.67    2.88    0.79   0.000   0.200   0.000    0.00
   1.050    9.77    0.34    1.21   0.000   0.200   0.000    0.00
   1.100    9.93   -3.02    1.26   0.000   0.200   0.000    0.00
   1.150   10.07   -2.94    0.99   0.000   0.200   0.000    0.00
   1.200    9.72   -1.76    0.96   0.000   0.200   0.000    0.00
   1.250    9.62   -2.34    1.33   0.000   0.200   0.000    0.00
   1.300    9.76   -0.99    1.77   0.000   0.200   0.000    0.00
   1.350   10.02    0.05    1.35   0.000   0.200   0.000    0.00
   1.400   10.00   -0.38    1.00   0.000   0.200   0.000    0.00
   1.450    9.96    4.13    0.41   0.000   0.200   0.000    0.00
   1.500    9.90    5.77    0.80   0.000   0.200   0.000    0.00
   1.550    9.82    2.18    0.98   0.000   0.200   0.000    0.00
   1.600    9.95    2.59    0.78   0.000   0.200   0.000    0.00
   1.650    9.97    7.00    0.65   0.000   0.200   0.000    0.00
   1.700   10.04    2.69    0.63   0.000   0.200   0.000    0.00
   1.750   10.06    3.90    0.30   0.000   0.200   0.000    0.00
   1.800    9.90    3.97    0.32   0.000   0.200   0.000    0.00
   1.850   10.64    4.72    0.63   0.000   0.200   0.000    0.00
   1.900   10.68    4.86    0.95   0.000   0.200   0.000    0.00
   1.950   10.55    3.32    1.14   0.000   0.200   0.000    0.00
   2.000   10.60    3.16    1.52   0.000   0.200   0.000    0.00
   2.050   10.83    2.25    1.82   0.000   0.200   0.000    0.00
   2.100   10.45   -0.82    1.86   0.000   0.200   0.000    0.00
   2.150   10.29   -0.51    1.94   0.000   0.200   0.000    0.00
   2.200   10.28   -2.11    1.35   0.000   0.200   0.000    0.00
   2.250   10.68   -3.36    1.74   0.000   0.200   0.000    0.00
   2.300   10.22   -4.09    1.80   0.000   0.200   0.000    0.00
   2.350   10.20   -6.88    1.63   0.000   0.200   0.000    0.00
   2.400   10.37   -5.36    1.65   0.000   0.200   0.000    0.00
   2.450   10.68   -3.76    2.19   0.000   0.200   0.000    0.00
   2.500   10.32   -1.43    2.09   0.000   0.200   0.000    0.00
   2.550   10.46    0.71    2.25   0.000   0.200   0.000    0.00
   2.600    9.97    0.42    2.19   0.000   0.200   0.000    0.00
   2.650    9.74   -0.86    2.12   0.000   0.200   0.000    0.00
   2.700    9.73   -4.75    1.51   0.000   0.200   0.000    0.00
   2.750    9.76   -4.87    1.81   0.000   0.200   0.000    0.00
   2.800    9.68   -4.56    1.70   0.000   0.200   0.000    0.00
   2.850    9.95   -2.45    1.81   0.000   0.200   0.000    0.00
   2.900   10.06   -3.34    1.61   0.000   0.200   0.000    0.00
   2.950   10.10   -2.62    1.21   0.000   0.200   0.000    0.00
   3.000    9.86   -2.46    1.85   0.000   0.200   0.000    0.00
   3.050    9.89   -3.33    1.59   0.000   0.200   0.000    0.00
   3.100    9.79   -2.23    1.71   0.000   0.200   0.000    0.00
   3.150    9.73   -3.38    1.75   0.000   0.200   0.000    0.00
   3.200    9.65   -4.61    1.65   0.000   0.200   0.000    0.00
   3.250    9.86   -4.65    1.32   0.000   0.200   0.000    0.00
   3.300    9.70   -4.53    1.42   0.000   0.200   0.000    0.00
   3.350   10.35   -4.13    2.21   0.000   0.200   0.000    0.00
   3.400   10.35   -9.88    2.34   0.000   0.200   0.000    0.00
   3.450   10.57   -9.99    2.16   0.000   0.200   0.000    0.00
   3.500   10.72   -9.30    2.22   0.000   0.200   0.000    0.00
   3.550   10.36   -8.20    2.45   0.000   0.200   0.000    0.00
   3.600   10.26   -3.88    2.10   0.000   0.200   0.000    0.00
   3.650   10.22   -5.36    1.94   0.000   0.200   0.000    0.00
   3.700   10.04   -8.61    2.03   0.000   0.200   0.000    0.00
   3.750   10.14   -9.10    1.72   0.000   0.200   0.000    0.00
   3.800   10.28  -10.81    1.64   0.000   0.200   0.000    0.00
   3.850   10.14   -9.84    1.72   0.000   0.200   0.000    0.00
   3.900   10.08  -10.03    2.22   0.000   0.200   0.000    0.00
   3.950    9.74   -7.55    2.25   0.000   0.200   0.000    0.00
   4.000    9.57   -6.95    2.34   0.000   0.200   0.000    0.00
   4.050    9.44   -6.88    2.36   0.000   0.200   0.000    0.00
   4.100    9.44   -6.50    2.22   0.000   0.200   0.000    0.00
   4.150    9.36   -6.19    2.00   0.000   0.200   0.000    0.00
   4.200   10.08   -4.53    2.03   0.000   0.200   0.000    0.00
   4.250   10.54   -4.11    2.08   0.000   0.200   0.000    0.00
   4.300   10.41   -5.70    1.72   0.000   0.200   0.000    0.00
   4.350   10.23   -5.81    1.32   0.000   0.200   0.000    0.00
   4.400   10.40   -5.25    1.17   0.000   0.200   0.000    0.00
   4.450   10.50   -1.88    1.23   0.000   0.200   0.000    0.00
   4.500   10.64   -1.64    1.10   0.000   0.200   0.000    0.00
   4.550   10.85   -2.90    0.91   0.000   0.200   0.000    0.00
   4.600   10.68   -5.76    0.71   0.000   0.200   0.000    0.00
   4.650   10.15   -4.99    0.84   0.000   0.200   0.000    0.00
   4.700   10.22   -5.85    0.92   0.000   0.200   0.000    0.00
   4.750   10.79   -9.29    0.88   0.000   0.200   0.000    0.00
   4.800   10.55   -8.08    0.55   0.000   0.200   0.000    0.00
   4.850   10.11   -8.89    0.83   0.000   0.200   0.000    0.00
   4.900   10.04   -8.53    0.85   0.000   0.200   0.000    0.00
   4.950   10.33  -10.05    0.65   0.000   0.200   0.000    0.00
   5.000   10.14  -12.04    0.81   0.000   0.200   0.000    0.00
   5.050   10.55  -13.90    0.72   0.000   0.200   0.000    0.00
   5.100   10.47  -13.76    0.67   0.000   0.200   0.000    0.00
   5.150   10.40  -11.31    0.44   0.000   0.200   0.000    0.00
   5.200   10.41  -11.85    0.20   0.000   0.200   0.000    0.00
   5.250   10.22  -12.09    0.57   0.000   0.200   0.000    0.00
   5.300   10.22  -12.61    0.90   0.000   0.200   0.000    0.00
   5.350   10.44  -15.59    1.19   0.000   0.200   0.000    0.00
   5.400   10.61  -12.43    1.30   0.000   0.200   0.000    0.00
   5.450   10.24  -13.43    1.48   0.000   0.200   0.000    0.00
   5.500    9.94  -15.16    1.56   0.000   0.200   0.000    0.00
   5.550    9.71  -15.75    1.09   0.000   0.200   0.000    0.00
   5.600    9.70  -15.45    0.20   0.000   0.200   0.000    0.00
   5.650    9.73  -12.81    0.16   0.000   0.200   0.000    0.00
   5.700    9.53   -8.60    0.08   0.000   0.200   0.000    0.00
   5.750    9.45   -7.54   -0.29   0.000   0.200   0.000    0.00
   5.800    9.23   -6.16    0.12   0.000   0.200   0.000    0.00
   5.850    9.29   -8.09    0.26   0.000   0.200   0.000    0.00
   5.900    9.73   -8.76    0.16   0.000   0.200   0.000    0.00
   5.950    9.68   -9.26    0.08   0.000   0.200   0.000    0.00
   6.000   10.04  -10.39   -0.26   0.000   0.200   0.000    0.00
   6.050   10.06  -10.41    0.06   0.000   0.200   0.000    0.00
   6.100   10.13   -8.18    0.15   0.000   0.200   0.000    0.00
   6.150    9.99   -8.13    0.49   0.000   0.200   0.000    0.00
   6.200    9.98   -7.66    1.00   0.000   0.200   0.000    0.00
   6.250    9.81   -8.26    1.10   0.000   0.200   0.000    0.00
   6.300    9.58   -9.13    0.94   0.000   0.200   0.000    0.00
   6.350   10.10   -9.61    0.42   0.000   0.200   0.000    0.00
   6.400   10.02   -9.00    0.24   0.000   0.200   0.000    0.00
   6.450   10.16   -8.50    0.50   0.000   0.200   0.000    0.00
   6.500   10.46   -9.12    0.00   0.000   0.200   0.000    0.00
   6.550   10.04  -11.27   -0.25   0.000   0.200   0.000    0.00
   6.600   10.04  -10.04   -0.36   0.000   0.200   0.000    0.00
   6.650   10.12   -9.75   -0.70   0.000   0.200   0.000    0.00
   6.700   10.31   -7.63   -1.06   0.000   0.200   0.000    0.00
   6.750   10.24   -7.11   -0.89   0.000   0.200   0.000    0.00
   6.800   10.31  -10.92   -0.03   0.000   0.200   0.000    0.00
   6.850   10.24   -8.99   -0.42   0.000   0.200   0.000    0.00
   6.900   10.12   -8.89   -0.11   0.000   0.200   0.000    0.00
   6.950    9.76   -6.85   -0.30   0.000   0.200   0.000    0.00
   7.000   10.42   -6.87   -0.12   0.000   0.200   0.000    0.00
   7.050   10.56   -5.57   -0.33   0.000   0.200   0.000    0.00
   7.100   10.12   -6.27   -0.35   0.000   0.200   0.000    0.00
   7.150   10.51   -3.29   -0.04   0.000   0.200   0.000    0.00
   7.200   10.87   -3.95   -0.17   0.000   0.200   0.000    0.00
   7.250   10.88   -3.85   -0.03   0.000   0.200   0.000    0.00
   7.300   10.99   -2.74   -0.21   0.000   0.200   0.000    0.00
   7.350   10.87   -2.94   -0.15   0.000   0.200   0.000    0.00
   7.400   11.25   -4.53   -0.23   0.000   0.200   0.000    0.00
   7.450   10.95   -5.67   -0.61   0.000   0.200   0.000    0.00
   7.500   11.39   -7.18   -0.44   0.000   0.200   0.000    0.00
   7.550   11.46   -5.88   -0.38   0.000   0.200   0.000    0.00
   7.600   11.49   -6.35   -0.48   0.000   0.200   0.000    0.00
   7.650   11.92   -5.69   -0.10   0.000   0.200   0.000    0.00
   7.700   11.88   -3.72   -0.27   0.000   0.200   0.000    0.00
   7.750   11.93   -3.39   -0.03   0.000   0.200   0.000    0.00
   7.800   11.85   -4.78   -0.28   0.000   0.200   0.000    0.00
   7.850   11.78   -4.86   -0.75   0.000   0.200   0.000    0.00
   7.900   12.11   -4.72   -0.41   0.000   0.200   0.000    0.00
   7.950   12.04   -3.92   -0.53   0.000   0.200   0.000    0.00
   8.000   11.57   -2.17   -0.69   0.000   0.200   0.000    0.00
   8.050   11.83   -1.96   -0.76   0.000   0.200   0.000    0.00
   8.100   11.82   -2.26   -1.04   0.000   0.200   0.000    0.00
   8.150   11.58   -3.44   -0.68   0.000   0.200   0.000    0.00
   8.200   11.41   -2.30   -0.79   0.000   0.200   0.000    0.00
   8.250   11.42   -3.21   -0.70   0.000   0.200   0.000    0.00
   8.300   11.46   -1.71   -0.91   0.000   0.200   0.000    0.00
   8.350   11.67   -2.33   -1.06   0.000   0.200   0.000    0.00
   8.400   11.67   -0.34   -0.82   0.000   0.200   0.000    0.00
   8.450   11.44   -0.85   -0.64   0.000   0.200   0.000    0.00
   8.500   11.31   -0.08   -0.60   0.000   0.200   0.000    0.00
   8.550   11.52    2.55   -0.15   0.000   0.200   0.000    0.00
   8.600   11.46    2.81   -0.47   0.000   0.200   0.000    0.00
   8.650   11.35    3.28   -0.59   0.000   0.200   0.000    0.00
   8.700   11.44    4.08    0.04   0.000   0.200   0.000    0.00
   8.750   11.48    4.61   -0.15   0.000   0.200   0.000    0.00
   8.800   11.78    3.75   -0.08   0.000   0.200   0.000    0.00
   8.850   11.69    3.73   -0.16   0.000   0.200   0.000    0.00
   8.900   11.57    1.46   -0.52   0.000   0.200   0.000    0.00
   8.950   11.57   -0.25   -0.13   0.000   0.200   0.000    0.00
   9.000   11.73   -1.07   -0.03   0.000   0.200   0.000    0.00
   9.050   11.48   -1.82   -0.20   0.000   0.200   0.000    0.00
   9.100   11.99   -1.34   -0.78   0.000   0.200   0.000    0.00
   9.150   12.11   -1.27   -0.39   0.000   0.200   0.000    0.00
   9.200   11.88    0.23    0.39   0.000   0.200   0.000    0.00
   9.250   11.46    0.68    0.05   0.000   0.200   0.000    0.00
   9.300   12.20    0.71    0.08   0.000   0.200   0.000    0.00
   9.350   12.24    3.01   -0.31   0.000   0.200   0.000    0.00
   9.400   12.24    4.12   -0.60   0.000   0.200   0.000    0.00
   9.450   12.12    5.53   -0.76   0.000   0.200   0.000    0.00
   9.500   12.08    6.93   -0.80   0.000   0.200   0.000    0.00
   9.550   11.83    8.77   -0.14   0.000   0.200   0.000    0.00
   9.600   11.85    7.31   -0.22   0.000   0.200   0.000    0.00
   9.650   11.82   11.67   -0.47   0.000   0.200   0.000    0.00
   9.700   12.15   12.60   -0.40   0.000   0.200   0.000    0.00
   9.750   12.03   10.62   -0.35   0.000   0.200   0.000    0.00
   9.800   11.72   10.68   -0.11   0.000   0.200   0.000    0.00
   9.850   11.65   12.26   -0.46   0.000   0.200   0.000    0.00
   9.900   11.73   11.71   -0.58   0.000   0.200   0.000    0.00
   9.950   11.97    8.97   -0.35   0.000   0.200   0.000    0.00
  10.000   11.79   10.44   -0.30   0.000   0.200   0.000    0.00
  10.050   11.85    9.80   -0.29   0.000   0.200   0.000    0.00
  10.100   12.22    7.19    0.22   0.000   0.200   0.000    0.00
  10.150   12.56    7.69   -0.11   0.000   0.200   0.000    0.00
  10.200   12.28    4.84   -0.34   0.000   0.200   0.000    0.00
  10.250   12.64    5.90   -0.32   0.000   0.200   0.000    0.00
  10.300   12.51    4.01   -0.44   0.000   0.200   0.000    0.00
  10.350   12.16    2.38   -0.38   0.000   0.200   0.000    0.00
  10.400   11.83    4.87   -0.20   0.000   0.200   0.000    0.00
  10.450   11.92    4.29    0.22   0.000   0.200   0.000    0.00
  10.500   12.14    4.80    0.34   0.000   0.200   0.000    0.00
  10.550   12.28    6.08    0.72   0.000   0.200   0.000    0.00
  10.600   12.41    6.80    0.55   0.000   0.200   0.000    0.00
  10.650   12.38    6.32    0.90   0.000   0.200   0.000    0.00
  10.700   12.13    4.96    0.25   0.000   0.200   0.000    0.00
  10.750   12.10    5.55    0.70   0.000   0.200   0.000    0.00
  10.800   11.66    4.82    0.01   0.000   0.200   0.000    0.00
  10.850   11.71    5.71   -0.22   0.000   0.200   0.000    0.00
  10.900   11.94    7.89    0.04   0.000   0.200   0.000    0.00
  10.950   11.73    5.78    0.27   0.000   0.200   0.000    0.00
  11.000   11.61    7.36    0.67   0.000   0.200   0.000    0.00
  11.050   11.93    7.71    0.65   0.000   0.200   0.000    0.00
  11.100   12.35    7.55    0.43   0.000   0.200   0.000    0.00
  11.150   12.40    9.58    0.79   0.000   0.200   0.000    0.00
  11.200   12.05   10.29    0.54   0.000   0.200   0.000    0.00
  11.250   11.91   11.90    0.26   0.000   0.200   0.000    0.00
  11.300   12.01   13.40    0.40   0.000   0.200   0.000    0.00
  11.350   12.09   13.63    0.04   0.000   0.200   0.000    0.00
  11.400   12.39   10.78   -0.34   0.000   0.200   0.000    0.00
  11.450   11.97   10.28   -0.06   0.000   0.200   0.000    0.00
  11.500   11.67   12.53    0.27   0.000   0.200   0.000    0.00
  11.550   11.64   11.88    0.22   0.000   0.200   0.000    0.00
  11.600   11.89    8.84   -0.06   0.000   0.200   0.000    0.00
  11.650   11.82   10.94    0.26   0.000   0.200   0.000    0.00
  11.700   11.20   11.22    0.21   0.000   0.200   0.000    0.00
  11.750   11.63    9.64    0.45   0.000   0.200   0.000    0.00
  11.800   11.58    6.98    0.35   0.000   0.200   0.000    0.00
  11.850   11.89    5.71    0.18   0.000   0.200   0.000    0.00
  11.900   11.96    6.03    0.14   0.000   0.200   0.000    0.00
  11.950   11.93    8.25    0.67   0.000   0.200   0.000    0.00
  12.000   11.66    9.00    0.19   0.000   0.200   0.000    0.00
  12.050   11.37    9.72    0.54   0.000   0.200   0.000    0.00
  12.100   11.54    9.85    0.28   0.000   0.200   0.000    0.00
  12.150   11.59    9.18    0.15   0.000   0.200   0.000    0.00
  12.200   11.70    8.56    0.20   0.000   0.200   0.000    0.00
  12.250   11.45    4.70    0.49   0.000   0.200   0.000    0.00
  12.300   11.32    6.95    0.13   0.000   0.200   0.000    0.00
  12.350   10.93    6.70    0.23   0.000   0.200   0.000    0.00
  12.400   10.99    5.90    0.32   0.000   0.200   0.000    0.00
  12.450   11.45    4.23   -0.06   0.000   0.200   0.000    0.00
  12.500   11.41    3.34   -0.03   0.000   0.200   0.000    0.00
  12.550   11.55    1.37    0.40   0.000   0.200   0.000    0.00
  12.600   11.30   -0.50    0.67   0.000   0.200   0.000    0.00
  12.650   11.23   -1.20    0.59   0.000   0.200   0.000    0.00
  12.700   11.36   -1.55    1.10   0.000   0.200   0.000    0.00
  12.750   11.01    0.22    0.86   0.000   0.200   0.000    0.00
  12.800   11.35   -4.39    0.46   0.000   0.200   0.000    0.00
  12.850   11.31   -5.43    1.04   0.000   0.200   0.000    0.00
  12.900   11.45   -6.94    0.98   0.000   0.200   0.000    0.00
  12.950   11.75   -8.10    0.63   0.000   0.200   0.000    0.00
  13.000   11.84   -9.22    0.58   0.000   0.200   0.000    0.00
  13.050   11.71   -5.50    0.31   0.000   0.200   0.000    0.00
  13.100   11.42   -5.72    0.14   0.000   0.200   0.000    0.00
  13.150   11.50   -5.56    0.08   0.000   0.200   0.000    0.00
  13.200   11.70   -5.62   -0.54   0.000   0.200   0.000    0.00
  13.250   11.68   -5.50   -0.12   0.000   0.200   0.000    0.00
  13.300   11.48   -5.52   -0.19   0.000   0.200   0.000    0.00
  13.350   12.07   -3.38   -0.12   0.000   0.200   0.000    0.00
  13.400   11.84   -3.36   -0.23   0.000   0.200   0.000    0.00
  13.450   11.89   -4.27   -0.31   0.000   0.200   0.000    0.00
  13.500   11.65   -2.77   -0.48   0.000   0.200   0.000    0.00
  13.550   11.19   -2.45   -0.18   0.000   0.200   0.000    0.00
  13.600   11.42   -2.00    0.10   0.000   0.200   0.000    0.00
  13.650   11.36   -4.36    0.59   0.000   0.200   0.000    0.00
  13.700   11.81   -2.13    0.45   0.000   0.200   0.000    0.00
  13.750   11.48   -0.37    0.22   0.000   0.200   0.000    0.00
  13.800   11.38    0.46    0.30   0.000   0.200   0.000    0.00
  13.850   11.33   -0.28    0.04   0.000   0.200   0.000    0.00
  13.900   10.96    1.06    0.03   0.000   0.200   0.000    0.00
  13.950   10.93    0.99    0.21   0.000   0.200   0.000    0.00
  14.000   10.91   -0.31    0.36   0.000   0.200   0.000    0.00
  14.050   10.50    1.25    0.61   0.000   0.200   0.000    0.00
  14.100   10.87   -0.57   -0.03   0.000   0.200   0.000    0.00
  14.150   10.90   -4.79   -0.28   0.000   0.200   0.000    0.00
  14.200   10.65   -6.29   -0.18   0.000   0.200   0.000    0.00
  14.250   10.44   -3.66   -0.14   0.000   0.200   0.000    0.00
  14.300   10.71   -3.07   -0.44   0.000   0.200   0.000    0.00
  14.350   10.68    0.70   -0.09   0.000   0.200   0.000    0.00
  14.400   10.70    1.47   -0.04   0.000   0.200   0.000    0.00
  14.450   10.50    3.01    0.38   0.000   0.200   0.000    0.00
  14.500   10.61    3.81    0.04   0.000   0.200   0.000    0.00
  14.550   10.70    2.31   -0.29   0.000   0.200   0.000    0.00
  14.600   10.13    3.09   -0.36   0.000   0.200   0.000    0.00
  14.650    9.74    2.92    0.07   0.000   0.200   0.000    0.00
  14.700   10.19    5.68    0.12   0.000   0.200   0.000    0.00
  14.750   10.31    5.17    0.02   0.000   0.200   0.000    0.00
  14.800   10.27    6.27   -0.32   0.000   0.200   0.000    0.00
  14.850   10.24    7.63   -0.15   0.000   0.200   0.000    0.00
  14.900    9.57    8.83    0.16   0.000   0.200   0.000    0.00
  14.950    9.39    8.40    0.21   0.000   0.200   0.000    0.00
  15.000    9.04    4.97   -0.16   0.000   0.200   0.000    0.00
  15.050    9.23    6.43   -0.18   0.000   0.200   0.000    0.00
  15.100    9.43    6.86   -0.17   0.000   0.200   0.000    0.00
  15.150    9.81    4.31   -0.37   0.000   0.200   0.000    0.00
  15.200    9.79    7.36   -0.34   0.000   0.200   0.000    0.00
  15.250    9.58    7.40   -0.37   0.000   0.200   0.000    0.00
  15.300    9.78    7.40   -0.30   0.000   0.200   0.000    0.00
  15.350    9.36    8.37   -0.33   0.000   0.200   0.000    0.00
  15.400    9.71    8.54   -0.21   0.000   0.200   0.000    0.00
  15.450    9.62    8.09    0.06   0.000   0.200   0.000    0.00
  15.500    9.51    9.57    0.15   0.000   0.200   0.000    0.00
  15.550    9.26    5.26    0.07   0.000   0.200   0.000    0.00
  15.600    9.20    5.05    0.01   0.000   0.200   0.000    0.00
  15.650    9.06    3.88   -0.41   0.000   0.200   0.000    0.00
  15.700    9.16    6.49    0.17   0.000   0.200   0.000    0.00
  15.750    9.51    6.52    0.11   0.000   0.200   0.000    0.00
  15.800    9.35    5.08    0.53   0.000   0.200   0.000    0.00
  15.850    9.19    7.35    0.73   0.000   0.200   0.000    0.00
  15.900    9.21    6.48    0.16   0.000   0.200   0.000    0.00
  15.950    9.25    7.05   -0.20   0.000   0.200   0.000    0.00
  16.000    9.30    7.62   -0.02   0.000   0.200   0.000    0.00
  16.050    9.43    5.31   -0.20   0.000   0.200   0.000    0.00
  16.100    9.22    5.43   -0.60   0.000   0.200   0.000    0.00
  16.150    9.31    3.95   -0.92   0.000   0.200   0.000    0.00
  16.200    9.32    2.94   -1.10   0.000   0.200   0.000    0.00
  16.250    9.54    3.04   -1.19   0.000   0.200   0.000    0.00
  16.300   10.16   -0.35   -1.05   0.000   0.200   0.000    0.00
  16.350    9.79   -1.95   -1.06   0.000   0.200   0.000    0.00
  16.400    9.74   -2.56   -0.82   0.000   0.200   0.000    0.00
  16.450    9.94   -1.47   -0.81   0.000   0.200   0.000    0.00
  16.500    9.91   -0.61   -0.35   0.000   0.200   0.000    0.00
  16.550    9.81    0.64   -0.15   0.000   0.200   0.000    0.00
  16.600    9.81   -0.24   -0.54   0.000   0.200   0.000    0.00
  16.650    9.61   -0.68   -0.73   0.000   0.200   0.000    0.00
  16.700    9.51    1.98   -0.14   0.000   0.200   0.000    0.00
  16.750    9.59   -1.50    0.04   0.000   0.200   0.000    0.00
  16.800    9.60   -1.49    0.13   0.000   0.200   0.000    0.00
  16.850   10.17   -0.47   -0.14   0.000   0.200   0.000    0.00
  16.900    9.69    0.96   -0.28   0.000   0.200   0.000    0.00
  16.950   10.04   -0.76    0.04   0.000   0.200   0.000    0.00
  17.000   10.10    1.95   -0.01   0.000   0.200   0.000    0.00
  17.050   10.03    2.38    0.19   0.000   0.200   0.000    0.00
  17.100   10.08    3.63    0.01   0.000   0.200   0.000    0.00
  17.150   10.02    1.14   -0.08   0.000   0.200   0.000    0.00
  17.200    9.94   -2.56    0.13   0.000   0.200   0.000    0.00
  17.250   10.21   -3.58   -0.03   0.000   0.200   0.000    0.00
  17.300   10.21   -3.05   -0.48   0.000   0.200   0.000    0.00
  17.350   10.15   -1.26   -0.76   0.000   0.200   0.000    0.00
  17.400   10.30    1.87   -0.18   0.000   0.200   0.000    0.00
  17.450   10.02    3.02    0.51   0.000   0.200   0.000    0.00
  17.500   10.05    1.72    1.03   0.000   0.200   0.000    0.00
  17.550    9.92    1.42    1.53   0.000   0.200   0.000    0.00
  17.600   10.36    1.02    1.34   0.000   0.200   0.000    0.00
  17.650   10.18    2.60    1.44   0.000   0.200   0.000    0.00
  17.700   10.06    0.93    1.05   0.000   0.200   0.000    0.00
  17.750   10.09    0.71    1.24   0.000   0.200   0.000    0.00
  17.800    9.78    4.32    1.60   0.000   0.200   0.000    0.00
  17.850    9.73    4.61    1.30   0.000   0.200   0.000    0.00
  17.900    9.35    4.21    1.19   0.000   0.200   0.000    0.00
  17.950    9.09    1.79    1.36   0.000   0.200   0.000    0.00
  18.000    8.94    2.92    1.26   0.000   0.200   0.000    0.00
  18.050    8.98    4.08    1.48   0.000   0.200   0.000    0.00
  18.100    9.12    3.14    1.26   0.000   0.200   0.000    0.00
  18.150    8.93    5.44    1.57   0.000   0.200   0.000    0.00
  18.200    9.02    3.21    1.32   0.000   0.200   0.000    0.00
  18.250    8.85    4.13    1.61   0.000   0.200   0.000    0.00
  18.300    8.86    4.23    1.62   0.000   0.200   0.000    0.00
  18.350    8.80    3.61    1.86   0.000   0.200   0.000    0.00
  18.400    9.10    5.13    2.05   0.000   0.200   0.000    0.00
  18.450    8.83    6.07    2.22   0.000   0.200   0.000    0.00
  18.500    8.84    9.56    2.39   0.000   0.200   0.000    0.00
  18.550    9.59   10.10    2.30   0.000   0.200   0.000    0.00
  18.600    9.63   11.72    1.48   0.000   0.200   0.000    0.00
  18.650    9.46   12.11    1.45   0.000   0.200   0.000    0.00
  18.700    9.41   10.21    1.11   0.000   0.200   0.000    0.00
  18.750    9.54   10.94    1.39   0.000   0.200   0.000    0.00
  18.800    9.64   11.21    1.37   0.000   0.200   0.000    0.00
  18.850    9.11   12.37    1.81   0.000   0.200   0.000    0.00
  18.900    8.78   10.55    2.05   0.000   0.200   0.000    0.00
  18.950    9.01   12.58    2.14   0.000   0.200   0.000    0.00
  19.000    8.74   11.17    2.72   0.000   0.200   0.000    0.00
  19.050    8.86   13.37    2.49   0.000   0.200   0.000    0.00
  19.100    9.14   13.35    2.58   0.000   0.200   0.000    0.00
  19.150    9.21   13.00    2.31   0.000   0.200   0.000    0.00
  19.200    9.51   15.43    1.95   0.000   0.200   0.000    0.00
  19.250    9.13   13.19    1.81   0.000   0.200   0.000    0.00
  19.300    8.85   11.79    2.11   0.000   0.200   0.000    0.00
  19.350    8.84   13.21    2.03   0.000   0.200   0.000    0.00
  19.400    8.90   13.49    1.69   0.000   0.200   0.000    0.00
  19.450    9.16   10.89    1.35   0.000   0.200   0.000    0.00
  19.500    9.25   10.69    1.35   0.000   0.200   0.000    0.00
  19.550    9.13   10.09    1.44   0.000   0.200   0.000    0.00
  19.600    9.08   10.48    1.76   0.000   0.200   0.000    0.00
  19.650    9.33    9.74    1.75   0.000   0.200   0.000    0.00
  19.700    9.28    6.97    1.99   0.000   0.200   0.000    0.00
  19.750    9.19    6.87    1.88   0.000   0.200   0.000    0.00
  19.800    9.44    5.84    1.40   0.000   0.200   0.000    0.00
  19.850    9.52    6.91    1.45   0.000   0.200   0.000    0.00
  19.900    9.73    5.37    1.14   0.000   0.200   0.000    0.00
  19.950    9.88    5.86    1.11   0.000   0.200   0.000    0.00
  20.000    9.45    4.10    0.99   0.000   0.200   0.000    0.00
  20.050    9.54    2.45    0.72   0.000   0.200   0.000    0.00
  20.100    9.54    2.77    1.06   0.000   0.200   0.000    0.00
  20.150    9.72    1.21    1.18   0.000   0.200   0.000    0.00
  20.200    9.72    0.70    0.99   0.000   0.200   0.000    0.00
  20.250    9.64    1.09    1.01   0.000   0.200   0.000    0.00
  20.300    9.93    1.24    1.57   0.000   0.200   0.000    0.00
  20.350   10.15    1.16    1.56   0.000   0.200   0.000    0.00
  20.400    9.89    0.30    0.91   0.000   0.200   0.000    0.00
  20.450   10.01    2.67    0.65   0.000   0.200   0.000    0.00
  20.500   10.79    0.08    0.78   0.000   0.200   0.000    0.00
  20.550   10.71   -0.89    0.68   0.000   0.200   0.000    0.00
  20.600   10.17   -1.03    1.10   0.000   0.200   0.000    0.00
  20.650   10.31    0.12    1.57   0.000   0.200   0.000    0.00
  20.700   10.97    1.24    1.94   0.000   0.200   0.000    0.00
  20.750   11.01    0.67    1.75   0.000   0.200   0.000    0.00
  20.800   10.73    1.63    2.38   0.000   0.200   0.000    0.00
  20.850   10.42   -0.05    2.36   0.000   0.200   0.000    0.00
  20.900   10.22   -1.42    1.92   0.000   0.200   0.000    0.00
  20.950   10.03   -1.10    2.12   0.000   0.200   0.000    0.00
  21.000    9.79   -3.04    2.44   0.000   0.200   0.000    0.00
  21.050    9.40   -3.80    2.13   0.000   0.200   0.000    0.00
  21.100    9.33   -2.42    1.74   0.000   0.200   0.000    0.00
  21.150    9.89   -1.92    1.91   0.000   0.200   0.000    0.00
  21.200   10.49   -3.26    2.34   0.000   0.200   0.000    0.00
  21.250   10.63   -3.45    2.58   0.000   0.200   0.000    0.00
  21.300   10.85   -2.71    2.73   0.000   0.200   0.000    0.00
  21.350   10.55   -1.60    2.65   0.000   0.200   0.000    0.00
  21.400   10.36   -2.20    3.03   0.000   0.200   0.000    0.00
  21.450   10.63   -1.92    2.92   0.000   0.200   0.000    0.00
  21.500   11.16   -1.29    2.77   0.000   0.200   0.000    0.00
  21.550   10.89    0.61    2.54   0.000   0.200   0.000    0.00
  21.600   10.97    0.37    2.67   0.000   0.200   0.000    0.00
  21.650   10.72    1.34    2.38   0.000   0.200   0.000    0.00
  21.700   10.41    2.68    2.02   0.000   0.200   0.000    0.00
  21.750   10.93    2.10    2.19   0.000   0.200   0.000    0.00
  21.800   11.05    2.78    2.38   0.000   0.200   0.000    0.00
  21.850   11.05    2.05    2.91   0.000   0.200   0.000    0.00
  21.900   11.14    0.93    2.33   0.000   0.200   0.000    0.00
  21.950   11.16    0.73    2.23   0.000   0.200   0.000    0.00
  22.000   11.06    0.46    1.97   0.000   0.200   0.000    0.00
  22.050   11.13    0.57    1.93   0.000   0.200   0.000    0.00
  22.100   10.97    1.62    2.12   0.000   0.200   0.000    0.00
  22.150   10.69    5.46    1.77   0.000   0.200   0.000    0.00
  22.200   10.23    4.97    1.48   0.000   0.200   0.000    0.00
  22.250    9.98    6.37    1.39   0.000   0.200   0.000    0.00
  22.300    9.68   10.06    1.70   0.000   0.200   0.000    0.00
  22.350    9.57    7.54    1.55   0.000   0.200   0.000    0.00