! This hub-height wind-speed file was generated by TurbSim (v1.06.00, 21-Sep-2012) on 16-Jun-2018 at 18:32:27.
!
! The requested statistics for this data were:
!    Mean Total Wind Speed =   23.000 m/s
!    Turbulence Intensity  =   13.909%
!
!   Time  HorSpd  WndDir  VerSpd  HorShr  VerShr  LnVShr  GstSpd
!  (sec)   (m/s)   (deg)   (m/s)     (-)     (-)     (-)   (m/s)
   0.000   22.96    2.24   -2.73   0.000   0.200   0.000    0.00
   0.050   21.73    1.88   -2.63   0.000   0.200   0.000    0.00
   0.100   21.61    2.97   -2.26   0.000   0.200   0.000    0.00
   0.150   21.44    2.62   -2.28   0.000   0.200   0.000    0.00
   0.200   21.83    3.24   -1.65   0.000   0.200   0.000    0.00
   0.250   22.65    2.60   -1.12   0.000   0.200   0.000    0.00
   0.300   22.29    2.58   -2.15   0.000   0.200   0.000    0.00
   0.350   22.02    1.36   -2.25   0.000   0.200   0.000    0.00
   0.400   23.06    3.88   -1.13   0.000   0.200   0.000    0.00
   0.450   23.20    3.91   -0.52   0.000   0.200   0.000    0.00
   0.500   22.45    3.96   -1.13   0.000   0.200   0.000    0.00
   0.550   22.20    3.62   -1.89   0.000   0.200   0.000    0.00
   0.600   22.24    2.01   -1.77   0.000   0.200   0.000    0.00
   0.650   21.56    4.61   -2.27   0.000   0.200   0.000    0.00
   0.700   21.61    8.30   -2.12   0.000   0.200   0.000    0.00
   0.750   21.44    6.60   -1.50   0.000   0.200   0.000    0.00
   0.800   22.18    7.45   -0.65   0.000   0.200   0.000    0.00
   0.850   22.44    8.07   -1.55   0.000   0.200   0.000    0.00
   0.900   22.54    7.05   -1.71   0.000   0.200   0.000    0.00
   0.950   22.43    4.36   -1.55   0.000   0.200   0.000    0.00
   1.000   22.49    2.79   -2.17   0.000   0.200   0.000    0.00
   1.050   23.51    4.40   -1.56   0.000   0.200   0.000    0.00
   1.100   23.45    3.38   -1.97   0.000   0.200   0.000    0.00
   1.150   23.33    5.89   -1.57   0.000   0.200   0.000    0.00
   1.200   23.76    4.16   -1.76   0.000   0.200   0.000    0.00
   1.250   23.28    3.11   -2.72   0.000   0.200   0.000    0.00
   1.300   22.92    4.58   -2.41   0.000   0.200   0.000    0.00
   1.350   23.30    2.96   -2.53   0.000   0.200   0.000    0.00
   1.400   23.81    6.66   -2.44   0.000   0.200   0.000    0.00
   1.450   24.38    3.43   -1.87   0.000   0.200   0.000    0.00
   1.500   24.77    4.27   -2.59   0.000   0.200   0.000    0.00
   1.550   24.46    2.14   -2.21   0.000   0.200   0.000    0.00
   1.600   24.20    0.53   -1.93   0.000   0.200   0.000    0.00
   1.650   23.49    0.72   -2.64   0.000   0.200   0.000    0.00
   1.700   24.15    2.74   -2.92   0.000   0.200   0.000    0.00
   1.750   23.67    1.27   -2.67   0.000   0.200   0.000    0.00
   1.800   23.82   -0.32   -3.18   0.000   0.200   0.000    0.00
   1.850   23.28    1.77   -3.61   0.000   0.200   0.000    0.00
   1.900   23.50    1.68   -2.99   0.000   0.200   0.000    0.00
   1.950   23.60   -1.09   -2.31   0.000   0.200   0.000    0.00
   2.000   23.06   -2.54   -1.42   0.000   0.200   0.000    0.00
   2.050   22.85   -2.91   -2.30   0.000   0.200   0.000    0.00
   2.100   24.61   -1.92   -1.28   0.000   0.200   0.000    0.00
   2.150   24.17    1.13   -1.04   0.000   0.200   0.000    0.00
   2.200   22.98    4.07   -1.15   0.000   0.200   0.000    0.00
   2.250   22.34    2.38   -1.89   0.000   0.200   0.000    0.00
   2.300   22.81    5.70   -2.43   0.000   0.200   0.000    0.00
   2.350   22.39    7.52   -2.91   0.000   0.200   0.000    0.00
   2.400   21.92   10.24   -3.04   0.000   0.200   0.000    0.00
   2.450   22.51   13.06   -2.38   0.000   0.200   0.000    0.00
   2.500   21.63    8.96   -2.51   0.000   0.200   0.000    0.00
   2.550   20.92    9.68   -2.72   0.000   0.200   0.000    0.00
   2.600   22.53   11.47   -2.69   0.000   0.200   0.000    0.00
   2.650   22.71   10.29   -2.47   0.000   0.200   0.000    0.00
   2.700   22.36    9.24   -2.75   0.000   0.200   0.000    0.00
   2.750   21.52    9.58   -2.85   0.000   0.200   0.000    0.00
   2.800   20.84    9.35   -2.13   0.000   0.200   0.000    0.00
   2.850   21.62    4.37   -3.08   0.000   0.200   0.000    0.00
   2.900   22.59    4.01   -3.78   0.000   0.200   0.000    0.00
   2.950   22.83    4.66   -3.18   0.000   0.200   0.000    0.00
   3.000   23.10    5.78   -3.38   0.000   0.200   0.000    0.00
   3.050   23.83    7.47   -3.56   0.000   0.200   0.000    0.00
   3.100   22.61    9.02   -2.58   0.000   0.200   0.000    0.00
   3.150   21.92    7.57   -1.59   0.000   0.200   0.000    0.00
   3.200   21.86    8.22   -2.59   0.000   0.200   0.000    0.00
   3.250   21.93    5.94   -3.02   0.000   0.200   0.000    0.00
   3.300   20.13    4.16   -3.42   0.000   0.200   0.000    0.00
   3.350   20.87    4.69   -3.56   0.000   0.200   0.000    0.00
   3.400   21.66    5.61   -3.52   0.000   0.200   0.000    0.00
   3.450   21.29    5.39   -3.06   0.000   0.200   0.000    0.00
   3.500   21.54    5.15   -3.14   0.000   0.200   0.000    0.00
   3.550   21.11    7.20   -3.22   0.000   0.200   0.000    0.00
   3.600   21.09    8.87   -3.64   0.000   0.200   0.000    0.00
   3.650   20.81   12.39   -2.86   0.000   0.200   0.000    0.00
   3.700   20.47   14.97   -2.04   0.000   0.200   0.000    0.00
   3.750   19.87   12.50   -0.42   0.000   0.200   0.000    0.00
   3.800   19.21   14.22   -1.12   0.000   0.200   0.000    0.00
   3.850   19.30   12.41    0.07   0.000   0.200   0.000    0.00
   3.900   18.95   11.31    0.78   0.000   0.200   0.000    0.00
   3.950   19.34   13.21    0.48   0.000   0.200   0.000    0.00
   4.000   19.61    8.52    0.74   0.000   0.200   0.000    0.00
   4.050   19.77    9.90    1.88   0.000   0.200   0.000    0.00
   4.100   19.06   11.59    1.83   0.000   0.200   0.000    0.00
   4.150   19.15    8.79    1.84   0.000   0.200   0.000    0.00
   4.200   20.03    6.85    1.90   0.000   0.200   0.000    0.00
   4.250   20.05    9.03    1.62   0.000   0.200   0.000    0.00
   4.300   19.33    9.61    2.29   0.000   0.200   0.000    0.00
   4.350   18.47    6.62    1.90   0.000   0.200   0.000    0.00
   4.400   18.91    8.36    1.86   0.000   0.200   0.000    0.00
   4.450   19.63    6.88    0.77   0.000   0.200   0.000    0.00
   4.500   20.08    4.89    0.15   0.000   0.200   0.000    0.00
   4.550   19.40    4.23    0.79   0.000   0.200   0.000    0.00
   4.600   20.51    5.24    1.03   0.000   0.200   0.000    0.00
   4.650   20.51    0.49    0.39   0.000   0.200   0.000    0.00
   4.700   20.13    0.70    0.42   0.000   0.200   0.000    0.00
   4.750   18.59    0.64    0.85   0.000   0.200   0.000    0.00
   4.800   18.78   -3.31    0.33   0.000   0.200   0.000    0.00
   4.850   18.66   -4.79   -1.02   0.000   0.200   0.000    0.00
   4.900   18.39   -4.27   -0.78   0.000   0.200   0.000    0.00
   4.950   19.08    2.60   -0.26   0.000   0.200   0.000    0.00
   5.000   20.03    2.76   -0.91   0.000   0.200   0.000    0.00
   5.050   19.78    5.19   -0.03   0.000   0.200   0.000    0.00
   5.100   19.10    7.60   -0.84   0.000   0.200   0.000    0.00
   5.150   19.67    5.20   -1.24   0.000   0.200   0.000    0.00
   5.200   20.05    5.38   -0.21   0.000   0.200   0.000    0.00
   5.250   19.94    3.95    0.01   0.000   0.200   0.000    0.00
   5.300   20.05    3.16    0.54   0.000   0.200   0.000    0.00
   5.350   20.16    6.45   -0.80   0.000   0.200   0.000    0.00
   5.400   19.43    4.60   -1.40   0.000   0.200   0.000    0.00
   5.450   19.46    9.23   -0.87   0.000   0.200   0.000    0.00
   5.500   19.14   13.29   -1.70   0.000   0.200   0.000    0.00
   5.550   19.57   15.18   -1.97   0.000   0.200   0.000    0.00
   5.600   19.43   16.53   -1.50   0.000   0.200   0.000    0.00
   5.650   18.77   13.19   -0.56   0.000   0.200   0.000    0.00
   5.700   17.35   13.96   -0.70   0.000   0.200   0.000    0.00
   5.750   17.41   12.12   -0.87   0.000   0.200   0.000    0.00
   5.800   18.24   14.15   -1.52   0.000   0.200   0.000    0.00
   5.850   17.97   14.54   -0.31   0.000   0.200   0.000    0.00
   5.900   18.68   12.38    0.89   0.000   0.200   0.000    0.00
   5.950   18.32    9.13    0.54   0.000   0.200   0.000    0.00
   6.000   17.53    5.90    0.20   0.000   0.200   0.000    0.00
   6.050   17.70    5.30    0.64   0.000   0.200   0.000    0.00
   6.100   17.22    5.63    1.05   0.000   0.200   0.000    0.00
   6.150   17.42    2.56   -0.48   0.000   0.200   0.000    0.00
   6.200   18.24   -0.78    0.97   0.000   0.200   0.000    0.00
   6.250   17.99    1.78    1.44   0.000   0.200   0.000    0.00
   6.300   18.11    2.81    0.66   0.000   0.200   0.000    0.00
   6.350   17.70   -2.21   -0.51   0.000   0.200   0.000    0.00
   6.400   18.37   -1.48   -0.52   0.000   0.200   0.000    0.00
   6.450   18.33   -2.19   -0.76   0.000   0.200   0.000    0.00
   6.500   18.71   -1.61   -0.59   0.000   0.200   0.000    0.00
   6.550   18.83    1.50   -0.30   0.000   0.200   0.000    0.00
   6.600   18.62    1.40   -0.77   0.000   0.200   0.000    0.00
   6.650   18.70   -1.61   -0.13   0.000   0.200   0.000    0.00
   6.700   18.84   -1.95   -0.59   0.000   0.200   0.000    0.00
   6.750   18.39   -1.12   -0.95   0.000   0.200   0.000    0.00
   6.800   18.89   -2.05   -0.23   0.000   0.200   0.000    0.00
   6.850   18.08    0.55   -0.99   0.000   0.200   0.000    0.00
   6.900   18.39    0.42   -0.52   0.000   0.200   0.000    0.00
   6.950   18.39    0.59    0.14   0.000   0.200   0.000    0.00
   7.000   18.90   -0.45    0.50   0.000   0.200   0.000    0.00
   7.050   18.82    0.57   -0.74   0.000   0.200   0.000    0.00
   7.100   19.10    0.60   -0.29   0.000   0.200   0.000    0.00
   7.150   19.12    0.41   -0.43   0.000   0.200   0.000    0.00
   7.200   18.94   -1.89    0.52   0.000   0.200   0.000    0.00
   7.250   19.27   -1.23    1.15   0.000   0.200   0.000    0.00
   7.300   20.51    2.85    1.44   0.000   0.200   0.000    0.00
   7.350   20.06    1.74   -0.17   0.000   0.200   0.000    0.00
   7.400   19.68    0.70    0.16   0.000   0.200   0.000    0.00
   7.450   19.72    2.06    0.06   0.000   0.200   0.000    0.00
   7.500   18.77    2.22   -0.23   0.000   0.200   0.000    0.00
   7.550   19.72   -0.92   -0.09   0.000   0.200   0.000    0.00
   7.600   19.38    1.08    1.47   0.000   0.200   0.000    0.00
   7.650   18.39   -0.35    1.98   0.000   0.200   0.000    0.00
   7.700   17.41   -2.54    0.25   0.000   0.200   0.000    0.00
   7.750   17.85   -2.43   -0.63   0.000   0.200   0.000    0.00
   7.800   18.20   -3.28    0.14   0.000   0.200   0.000    0.00
   7.850   17.87   -5.59   -0.17   0.000   0.200   0.000    0.00
   7.900   18.31   -4.47   -0.59   0.000   0.200   0.000    0.00
   7.950   18.56   -4.97   -1.63   0.000   0.200   0.000    0.00
   8.000   18.75   -5.51   -0.70   0.000   0.200   0.000    0.00
   8.050   18.87   -7.96   -0.82   0.000   0.200   0.000    0.00
   8.100   18.59   -6.85   -1.09   0.000   0.200   0.000    0.00
   8.150   19.38  -11.39   -0.21   0.000   0.200   0.000    0.00
   8.200   19.82   -5.19    0.15   0.000   0.200   0.000    0.00
   8.250   19.59   -1.54   -0.80   0.000   0.200   0.000    0.00
   8.300   20.04    0.85   -0.98   0.000   0.200   0.000    0.00
   8.350   21.56    2.03   -1.92   0.000   0.200   0.000    0.00
   8.400   22.05    1.15   -2.73   0.000   0.200   0.000    0.00
   8.450   21.64   -0.77   -1.79   0.000   0.200   0.000    0.00
   8.500   21.35   -3.65   -1.04   0.000   0.200   0.000    0.00
   8.550   20.55   -4.46   -0.56   0.000   0.200   0.000    0.00
   8.600   20.38   -5.60    0.12   0.000   0.200   0.000    0.00
   8.650   19.75   -5.12   -0.51   0.000   0.200   0.000    0.00
   8.700   19.92   -1.21   -1.01   0.000   0.200   0.000    0.00
   8.750   20.21    0.05    0.21   0.000   0.200   0.000    0.00
   8.800   20.26   -3.53    1.15   0.000   0.200   0.000    0.00
   8.850   19.71    0.96    0.80   0.000   0.200   0.000    0.00
   8.900   19.46    3.64   -0.64   0.000   0.200   0.000    0.00
   8.950   19.16    2.80   -1.39   0.000   0.200   0.000    0.00
   9.000   19.52    4.27   -0.88   0.000   0.200   0.000    0.00
   9.050   20.10    5.37   -1.40   0.000   0.200   0.000    0.00
   9.100   19.54    4.46   -0.92   0.000   0.200   0.000    0.00
   9.150   19.84    1.08   -1.77   0.000   0.200   0.000    0.00
   9.200   20.05    4.55   -2.02   0.000   0.200   0.000    0.00
   9.250   19.66    1.18   -1.80   0.000   0.200   0.000    0.00
   9.300   20.03   -1.92   -1.21   0.000   0.200   0.000    0.00
   9.350   19.85   -1.72   -0.10   0.000   0.200   0.000    0.00
   9.400   19.90   -1.36   -0.05   0.000   0.200   0.000    0.00
   9.450   20.43   -3.30   -0.44   0.000   0.200   0.000    0.00
   9.500   21.16   -5.94   -1.03   0.000   0.200   0.000    0.00
   9.550   21.32  -11.40   -1.44   0.000   0.200   0.000    0.00
   9.600   21.61  -10.31   -2.84   0.000   0.200   0.000    0.00
   9.650   22.37  -10.74   -2.54   0.000   0.200   0.000    0.00
   9.700   22.67   -8.87   -2.69   0.000   0.200   0.000    0.00
   9.750   22.45   -6.47   -1.99   0.000   0.200   0.000    0.00
   9.800   21.82   -9.48   -2.72   0.000   0.200   0.000    0.00
   9.850   22.16   -8.39   -2.17   0.000   0.200   0.000    0.00
   9.900   22.73   -7.18   -0.99   0.000   0.200   0.000    0.00
   9.950   23.89   -5.38   -1.88   0.000   0.200   0.000    0.00
  10.000   23.79   -5.83   -2.99   0.000   0.200   0.000    0.00
  10.050   22.38   -4.08   -3.27   0.000   0.200   0.000    0.00
  10.100   22.15   -6.75   -2.83   0.000   0.200   0.000    0.00
  10.150   22.77   -8.39   -2.56   0.000   0.200   0.000    0.00
  10.200   21.66   -9.16   -2.74   0.000   0.200   0.000    0.00
  10.250   21.85  -12.20   -3.17   0.000   0.200   0.000    0.00
  10.300   22.05   -8.80   -2.83   0.000   0.200   0.000    0.00
  10.350   22.53   -7.59   -2.32   0.000   0.200   0.000    0.00
  10.400   21.42   -8.00   -1.36   0.000   0.200   0.000    0.00
  10.450   22.08   -7.41   -1.35   0.000   0.200   0.000    0.00
  10.500   22.89   -6.48    0.34   0.000   0.200   0.000    0.00
  10.550   22.37   -5.48    1.49   0.000   0.200   0.000    0.00
  10.600   23.11   -2.90    1.54   0.000   0.200   0.000    0.00
  10.650   22.78   -0.63    1.46   0.000   0.200   0.000    0.00
  10.700   22.02   -0.58    1.09   0.000   0.200   0.000    0.00
  10.750   20.99   -4.14    1.21   0.000   0.200   0.000    0.00
  10.800   21.48   -1.88    1.62   0.000   0.200   0.000    0.00
  10.850   22.75   -0.18    0.91   0.000   0.200   0.000    0.00
  10.900   24.06   -1.03    1.00   0.000   0.200   0.000    0.00
  10.950   22.10   -2.73    1.08   0.000   0.200   0.000    0.00
  11.000   23.19   -3.10    1.11   0.000   0.200   0.000    0.00
  11.050   24.20   -4.41    0.47   0.000   0.200   0.000    0.00
  11.100   24.76   -6.92    1.07   0.000   0.200   0.000    0.00
  11.150   23.71   -4.59    1.13   0.000   0.200   0.000    0.00
  11.200   24.63   -3.35    0.51   0.000   0.200   0.000    0.00
  11.250   22.86    2.16    0.33   0.000   0.200   0.000    0.00
  11.300   22.99    2.78   -0.21   0.000   0.200   0.000    0.00
  11.350   23.50    2.01   -0.77   0.000   0.200   0.000    0.00
  11.400   23.66    2.81    0.12   0.000   0.200   0.000    0.00
  11.450   23.97   -1.22   -0.39   0.000   0.200   0.000    0.00
  11.500   24.29   -1.44   -1.00   0.000   0.200   0.000    0.00
  11.550   24.61    0.24   -0.63   0.000   0.200   0.000    0.00
  11.600   25.39   -0.72   -0.93   0.000   0.200   0.000    0.00
  11.650   24.74   -0.99    0.14   0.000   0.200   0.000    0.00
  11.700   23.61   -0.28   -0.01   0.000   0.200   0.000    0.00
  11.750   23.83   -0.73    1.32   0.000   0.200   0.000    0.00
  11.800   23.96   -0.94    1.46   0.000   0.200   0.000    0.00
  11.850   23.49   -0.46    1.96   0.000   0.200   0.000    0.00
  11.900   24.28    1.07    1.97   0.000   0.200   0.000    0.00
  11.950   23.43   -1.00    1.98   0.000   0.200   0.000    0.00
  12.000   22.81   -2.66    2.33   0.000   0.200   0.000    0.00
  12.050   23.64   -3.25    1.73   0.000   0.200   0.000    0.00
  12.100   23.70   -2.62    1.59   0.000   0.200   0.000    0.00
  12.150   23.80   -3.94    0.92   0.000   0.200   0.000    0.00
  12.200   23.00   -2.42    1.67   0.000   0.200   0.000    0.00
  12.250   21.80   -1.64    2.46   0.000   0.200   0.000    0.00
  12.300   22.72   -1.22    2.03   0.000   0.200   0.000    0.00
  12.350   22.20   -0.44    0.48   0.000   0.200   0.000    0.00
  12.400   20.68    1.83    0.12   0.000   0.200   0.000    0.00
  12.450   20.97   -0.38   -0.07   0.000   0.200   0.000    0.00
  12.500   20.30    0.57   -0.32   0.000   0.200   0.000    0.00
  12.550   20.25    2.26    0.59   0.000   0.200   0.000    0.00
  12.600   20.76    1.56    1.45   0.000   0.200   0.000    0.00
  12.650   20.37   -1.10    2.01   0.000   0.200   0.000    0.00
  12.700   20.36   -2.07    1.19   0.000   0.200   0.000    0.00
  12.750   20.69   -0.33    1.59   0.000   0.200   0.000    0.00
  12.800   21.17    0.73    0.92   0.000   0.200   0.000    0.00
  12.850   20.78    1.96    0.07   0.000   0.200   0.000    0.00
  12.900   20.41    0.62   -0.48   0.000   0.200   0.000    0.00
  12.950   20.00    1.00    0.30   0.000   0.200   0.000    0.00
  13.000   20.88    0.49    1.07   0.000   0.200   0.000    0.00
  13.050   21.74    2.27    0.78   0.000   0.200   0.000    0.00
  13.100   21.70    0.57   -0.02   0.000   0.200   0.000    0.00
  13.150   21.71    1.40   -0.31   0.000   0.200   0.000    0.00
  13.200   22.14    1.69   -1.21   0.000   0.200   0.000    0.00
  13.250   21.49   -3.68   -1.47   0.000   0.200   0.000    0.00
  13.300   20.98   -7.31   -1.08   0.000   0.200   0.000    0.00
  13.350   21.08   -5.72   -1.00   0.000   0.200   0.000    0.00
  13.400   21.76   -2.63   -0.51   0.000   0.200   0.000    0.00
  13.450   22.32   -4.50   -0.07   0.000   0.200   0.000    0.00
  13.500   22.12   -5.65   -0.41   0.000   0.200   0.000    0.00
  13.550   20.78   -4.40   -0.65   0.000   0.200   0.000    0.00
  13.600   19.61   -3.21   -0.79   0.000   0.200   0.000    0.00
  13.650   20.04   -2.30   -1.17   0.000   0.200   0.000    0.00
  13.700   20.34   -8.18    0.41   0.000   0.200   0.000    0.00
  13.750   21.82   -6.94   -0.56   0.000   0.200   0.000    0.00
  13.800   21.47   -7.32   -1.88   0.000   0.200   0.000    0.00
  13.850   21.90   -6.39   -1.07   0.000   0.200   0.000    0.00
  13.900   22.42   -3.71   -0.77   0.000   0.200   0.000    0.00
  13.950   21.89   -4.48   -1.46   0.000   0.200   0.000    0.00
  14.000   22.11   -6.12   -1.83   0.000   0.200   0.000    0.00
  14.050   21.78   -1.95   -0.97   0.000   0.200   0.000    0.00
  14.100   21.72   -2.83   -0.90   0.000   0.200   0.000    0.00
  14.150   21.18   -5.08   -1.42   0.000   0.200   0.000    0.00
  14.200   21.88   -6.70   -0.20   0.000   0.200   0.000    0.00
  14.250   21.96   -6.33   -0.09   0.000   0.200   0.000    0.00
  14.300   22.44   -6.27   -0.68   0.000   0.200   0.000    0.00
  14.350   21.62   -7.44   -1.02   0.000   0.200   0.000    0.00
  14.400   21.93   -5.32   -1.11   0.000   0.200   0.000    0.00
  14.450   21.82   -7.87    0.57   0.000   0.200   0.000    0.00
  14.500   21.97  -12.92    0.90   0.000   0.200   0.000    0.00
  14.550   22.12  -12.68    0.91   0.000   0.200   0.000    0.00
  14.600   21.35  -13.09    0.76   0.000   0.200   0.000    0.00
  14.650   21.16  -13.73    1.32   0.000   0.200   0.000    0.00
  14.700   21.44  -14.96    1.75   0.000   0.200   0.000    0.00
  14.750   20.99  -14.94    1.93   0.000   0.200   0.000    0.00
  14.800   20.11  -12.48    1.94   0.000   0.200   0.000    0.00
  14.850   21.19  -10.36    2.47   0.000   0.200   0.000    0.00
  14.900   21.53  -11.59    2.13   0.000   0.200   0.000    0.00
  14.950   20.22  -10.50    1.65   0.000   0.200   0.000    0.00
  15.000   20.09  -11.43    1.65   0.000   0.200   0.000    0.00
  15.050   20.08  -13.25    2.25   0.000   0.200   0.000    0.00
  15.100   20.60  -16.49    1.69   0.000   0.200   0.000    0.00
  15.150   20.40  -16.68    2.48   0.000   0.200   0.000    0.00
  15.200   19.76  -16.73    1.72   0.000   0.200   0.000    0.00
  15.250   18.97  -12.74    2.53   0.000   0.200   0.000    0.00
  15.300   19.49  -12.38    2.32   0.000   0.200   0.000    0.00
  15.350   20.84  -11.35    1.17   0.000   0.200   0.000    0.00
  15.400   19.80  -10.94    1.51   0.000   0.200   0.000    0.00
  15.450   20.28  -11.12    1.66   0.000   0.200   0.000    0.00
  15.500   19.95   -9.09    1.09   0.000   0.200   0.000    0.00
  15.550   19.92   -8.29   -0.05   0.000   0.200   0.000    0.00
  15.600   19.61   -7.03   -0.99   0.000   0.200   0.000    0.00
  15.650   19.35   -4.66    0.65   0.000   0.200   0.000    0.00
  15.700   19.62   -5.79    0.84   0.000   0.200   0.000    0.00
  15.750   20.27   -4.38    0.62   0.000   0.200   0.000    0.00
  15.800   20.03   -5.39    1.02   0.000   0.200   0.000    0.00
  15.850   19.21  -11.75   -0.12   0.000   0.200   0.000    0.00
  15.900   18.37  -13.32   -0.27   0.000   0.200   0.000    0.00
  15.950   19.81  -14.92   -0.45   0.000   0.200   0.000    0.00
  16.000   20.34  -13.11   -0.16   0.000   0.200   0.000    0.00
  16.050   20.11  -15.97    0.14   0.000   0.200   0.000    0.00
  16.100   19.21  -18.08    0.27   0.000   0.200   0.000    0.00
  16.150   19.92  -16.15    0.34   0.000   0.200   0.000    0.00
  16.200   20.63  -14.17    0.23   0.000   0.200   0.000    0.00
  16.250   20.78  -13.41    0.78   0.000   0.200   0.000    0.00
  16.300   20.11  -12.72    0.69   0.000   0.200   0.000    0.00
  16.350   19.60  -15.95   -0.25   0.000   0.200   0.000    0.00
  16.400   20.32  -15.41    0.97   0.000   0.200   0.000    0.00
  16.450   20.50  -12.56    0.35   0.000   0.200   0.000    0.00
  16.500   19.94  -13.45    0.00   0.000   0.200   0.000    0.00
  16.550   20.52  -12.79    0.25   0.000   0.200   0.000    0.00
  16.600   20.53  -14.79   -0.08   0.000   0.200   0.000    0.00
  16.650   20.39  -18.72   -0.24   0.000   0.200   0.000    0.00
  16.700   21.25  -18.68   -0.56   0.000   0.200   0.000    0.00
  16.750   22.90  -18.65   -0.52   0.000   0.200   0.000    0.00
  16.800   21.92  -19.52   -1.33   0.000   0.200   0.000    0.00
  16.850   21.02  -16.94   -1.04   0.000   0.200   0.000    0.00
  16.900   20.79  -11.93   -0.89   0.000   0.200   0.000    0.00
  16.950   20.46  -13.19   -0.45   0.000   0.200   0.000    0.00
  17.000   20.48  -13.24   -0.93   0.000   0.200   0.000    0.00
  17.050   21.08  -10.91   -2.25   0.000   0.200   0.000    0.00
  17.100   20.84  -10.49   -1.80   0.000   0.200   0.000    0.00
  17.150   21.25  -12.27   -1.54   0.000   0.200   0.000    0.00
  17.200   21.82  -14.66   -0.79   0.000   0.200   0.000    0.00
  17.250   21.87  -16.50   -0.95   0.000   0.200   0.000    0.00
  17.300   22.52  -14.97   -1.04   0.000   0.200   0.000    0.00
  17.350   21.46  -16.97   -0.69   0.000   0.200   0.000    0.00
  17.400   20.79  -17.76   -0.67   0.000   0.200   0.000    0.00
  17.450   20.43  -15.86   -0.40   0.000   0.200   0.000    0.00
  17.500   19.46  -12.98    0.00   0.000   0.200   0.000    0.00
  17.550   20.25  -12.70    0.36   0.000   0.200   0.000    0.00
  17.600   20.60  -10.92   -0.01   0.000   0.200   0.000    0.00
  17.650   20.69  -11.61    0.93   0.000   0.200   0.000    0.00
  17.700   19.80  -13.52    1.41   0.000   0.200   0.000    0.00
  17.750   19.92   -9.55    1.26   0.000   0.200   0.000    0.00
  17.800   20.44   -8.41    1.92   0.000   0.200   0.000    0.00
  17.850   21.10  -10.40    1.63   0.000   0.200   0.000    0.00
  17.900   20.65  -10.86    2.41   0.000   0.200   0.000    0.00
  17.950   21.64  -12.07    3.04   0.000   0.200   0.000    0.00
  18.000   22.56  -13.70    1.83   0.000   0.200   0.000    0.00
  18.050   23.03  -13.31    0.72   0.000   0.200   0.000    0.00
  18.100   23.31  -10.12    0.82   0.000   0.200   0.000    0.00
  18.150   23.77  -13.06    0.43   0.000   0.200   0.000    0.00
  18.200   24.51  -13.17   -1.15   0.000   0.200   0.000    0.00
  18.250   24.12  -11.94   -0.74   0.000   0.200   0.000    0.00
  18.300   23.39  -13.14   -0.66   0.000   0.200   0.000    0.00
  18.350   22.53  -13.19   -0.96   0.000   0.200   0.000    0.00
  18.400   22.53  -12.67   -0.66   0.000   0.200   0.000    0.00
  18.450   23.32  -12.31   -0.64   0.000   0.200   0.000    0.00
  18.500   23.05  -11.95   -0.41   0.000   0.200   0.000    0.00
  18.550   23.73  -10.80   -1.11   0.000   0.200   0.000    0.00
  18.600   23.22  -10.66    0.09   0.000   0.200   0.000    0.00
  18.650   24.52   -9.64    0.29   0.000   0.200   0.000    0.00
  18.700   24.73  -13.39    0.42   0.000   0.200   0.000    0.00
  18.750   24.40  -15.21    0.62   0.000   0.200   0.000    0.00
  18.800   25.20  -15.54    0.47   0.000   0.200   0.000    0.00
  18.850   24.50  -11.46   -0.10   0.000   0.200   0.000    0.00
  18.900   23.83  -10.80   -0.89   0.000   0.200   0.000    0.00
  18.950   23.74  -13.30   -0.01   0.000   0.200   0.000    0.00
  19.000   23.04  -12.47    0.48   0.000   0.200   0.000    0.00
  19.050   23.69  -12.02    0.41   0.000   0.200   0.000    0.00
  19.100   23.72  -12.62   -0.07   0.000   0.200   0.000    0.00
  19.150   23.92  -13.24   -0.41   0.000   0.200   0.000    0.00
  19.200   24.04  -14.13   -0.22   0.000   0.200   0.000    0.00
  19.250   24.41  -11.56    0.26   0.000   0.200   0.000    0.00
  19.300   24.84  -14.86   -0.22   0.000   0.200   0.000    0.00
  19.350   23.66  -16.27    0.12   0.000   0.200   0.000    0.00
  19.400   24.56  -14.86   -0.21   0.000   0.200   0.000    0.00
  19.450   24.21  -15.48   -0.80   0.000   0.200   0.000    0.00
  19.500   24.01  -16.98   -1.13   0.000   0.200   0.000    0.00
  19.550   22.45  -16.71   -2.11   0.000   0.200   0.000    0.00
  19.600   22.17  -14.14   -1.36   0.000   0.200   0.000    0.00
  19.650   22.24  -12.41   -2.89   0.000   0.200   0.000    0.00
  19.700   22.64  -11.16   -2.76   0.000   0.200   0.000    0.00
  19.750   22.97  -11.81   -2.74   0.000   0.200   0.000    0.00
  19.800   22.88  -12.90   -1.84   0.000   0.200   0.000    0.00
  19.850   22.95  -11.72   -0.32   0.000   0.200   0.000    0.00
  19.900   23.13  -11.18   -0.55   0.000   0.200   0.000    0.00
  19.950   23.80  -11.89   -0.57   0.000   0.200   0.000    0.00
  20.000   23.73  -12.24    0.44   0.000   0.200   0.000    0.00
  20.050   23.67  -11.56    0.11   0.000   0.200   0.000    0.00
  20.100   23.79  -12.05   -0.65   0.000   0.200   0.000    0.00
  20.150   23.12  -11.56   -1.70   0.000   0.200   0.000    0.00
  20.200   22.76  -12.41   -0.56   0.000   0.200   0.000    0.00
  20.250   22.79  -10.47   -0.05   0.000   0.200   0.000    0.00
  20.300   22.58   -8.97   -0.37   0.000   0.200   0.000    0.00
  20.350   23.28   -9.92   -0.17   0.000   0.200   0.000    0.00
  20.400   23.20   -6.99   -0.90   0.000   0.200   0.000    0.00
  20.450   22.75  -10.26   -1.37   0.000   0.200   0.000    0.00
  20.500   21.84  -13.89   -0.99   0.000   0.200   0.000    0.00
  20.550   21.09  -12.31   -0.53   0.000   0.200   0.000    0.00
  20.600   21.17  -10.85    0.09   0.000   0.200   0.000    0.00
  20.650   20.70   -7.01    0.07   0.000   0.200   0.000    0.00
  20.700   20.66   -5.53   -0.24   0.000   0.200   0.000    0.00
  20.750   21.85   -9.71   -0.21   0.000   0.200   0.000    0.00
  20.800   21.82   -9.33    0.63   0.000   0.200   0.000    0.00
  20.850   21.40  -11.12    0.07   0.000   0.200   0.000    0.00
  20.900   22.15   -9.96    0.00   0.000   0.200   0.000    0.00
  20.950   23.45   -7.67    0.08   0.000   0.200   0.000    0.00
  21.000   22.60   -6.72   -0.55   0.000   0.200   0.000    0.00
  21.050   23.24   -6.36   -0.44   0.000   0.200   0.000    0.00
  21.100   22.63   -5.51   -0.90   0.000   0.200   0.000    0.00
  21.150   23.16   -8.49   -1.30   0.000   0.200   0.000    0.00
  21.200   22.72  -10.10   -1.04   0.000   0.200   0.000    0.00
  21.250   22.67   -8.39   -0.89   0.000   0.200   0.000    0.00
  21.300   23.23   -7.29   -2.25   0.000   0.200   0.000    0.00
  21.350   23.61   -3.87   -3.36   0.000   0.200   0.000    0.00
  21.400   24.33   -3.61   -3.18   0.000   0.200   0.000    0.00
  21.450   24.41   -6.31   -1.93   0.000   0.200   0.000    0.00
  21.500   23.44   -6.73   -2.35   0.000   0.200   0.000    0.00
  21.550   23.46   -6.88   -2.24   0.000   0.200   0.000    0.00
  21.600   23.62   -5.09   -1.83   0.000   0.200   0.000    0.00
  21.650   24.11   -4.09   -3.01   0.000   0.200   0.000    0.00
  21.700   23.28   -3.29   -2.84   0.000   0.200   0.000    0.00
  21.750   23.25   -3.29   -1.62   0.000   0.200   0.000    0.00
  21.800   22.16   -4.58   -1.16   0.000   0.200   0.000    0.00
  21.850   22.08   -2.66   -1.05   0.000   0.200   0.000    0.00
  21.900   22.40   -2.16   -1.10   0.000   0.200   0.000    0.00
  21.950   22.56   -1.10   -1.78   0.000   0.200   0.000    0.00
  22.000   22.67   -1.35   -0.73   0.000   0.200   0.000    0.00
  22.050   23.56   -2.00   -0.57   0.000   0.200   0.000    0.00
  22.100   23.59   -1.59   -1.64   0.000   0.200   0.000    0.00
  22.150   24.40   -4.02   -1.67   0.000   0.200   0.000    0.00
  22.200   24.95   -4.29   -1.70   0.000   0.200   0.000    0.00
  22.250   24.70   -4.90   -1.09   0.000   0.200   0.000    0.00
  22.300   24.36   -7.31   -1.45   0.000   0.200   0.000    0.00
  22.350   24.47   -6.70   -1.53   0.000   0.200   0.000    0.00