! This hub-height wind-speed file was generated by TurbSim (v1.06.00, 21-Sep-2012) on 16-Jun-2018 at 18:37:26.
!
! The requested statistics for this data were:
!    Mean Total Wind Speed =   13.000 m/s
!    Turbulence Intensity  =   24.640%
!
!   Time  HorSpd  WndDir  VerSpd  HorShr  VerShr  LnVShr  GstSpd
!  (sec)   (m/s)   (deg)   (m/s)     (-)     (-)     (-)   (m/s)
   0.000    8.46   -0.46   -1.19   0.000   0.200   0.000    0.00
   0.050    8.11    4.39   -0.85   0.000   0.200   0.000    0.00
   0.100    7.96    8.22   -2.36   0.000   0.200   0.000    0.00
   0.150    7.90    7.86   -2.05   0.000   0.200   0.000    0.00
   0.200    8.22   10.79   -1.88   0.000   0.200   0.000    0.00
   0.250    8.47   14.82   -1.64   0.000   0.200   0.000    0.00
   0.300    8.62   17.81   -2.73   0.000   0.200   0.000    0.00
   0.350    8.27   15.15   -1.47   0.000   0.200   0.000    0.00
   0.400    8.02    7.28   -0.80   0.000   0.200   0.000    0.00
   0.450    7.90    8.50   -0.83   0.000   0.200   0.000    0.00
   0.500    7.58   12.94    0.14   0.000   0.200   0.000    0.00
   0.550    8.13   16.75    0.10   0.000   0.200   0.000    0.00
   0.600    8.04   21.29   -0.95   0.000   0.200   0.000    0.00
   0.650    8.91   19.61   -1.19   0.000   0.200   0.000    0.00
   0.700    7.84    5.69   -1.82   0.000   0.200   0.000    0.00
   0.750    7.41   11.80   -2.39   0.000   0.200   0.000    0.00
   0.800    7.82   13.85   -2.82   0.000   0.200   0.000    0.00
   0.850    8.00   10.07   -3.09   0.000   0.200   0.000    0.00
   0.900    7.93    9.45   -3.58   0.000   0.200   0.000    0.00
   0.950    8.02    8.28   -3.03   0.000   0.200   0.000    0.00
   1.000    7.37   16.25   -2.71   0.000   0.200   0.000    0.00
   1.050    7.83   11.94   -2.67   0.000   0.200   0.000    0.00
   1.100    8.26    7.87   -3.36   0.000   0.200   0.000    0.00
   1.150    8.61    8.24   -3.69   0.000   0.200   0.000    0.00
   1.200    8.74    5.53   -4.18   0.000   0.200   0.000    0.00
   1.250    8.67    2.46   -3.55   0.000   0.200   0.000    0.00
   1.300    7.69    1.69   -4.01   0.000   0.200   0.000    0.00
   1.350    7.80    0.82   -4.47   0.000   0.200   0.000    0.00
   1.400    8.04    3.24   -3.66   0.000   0.200   0.000    0.00
   1.450    8.37    3.41   -4.02   0.000   0.200   0.000    0.00
   1.500    8.12    4.58   -3.82   0.000   0.200   0.000    0.00
   1.550    8.35    7.20   -4.13   0.000   0.200   0.000    0.00
   1.600    9.04   11.03   -5.24   0.000   0.200   0.000    0.00
   1.650   10.22    8.13   -5.16   0.000   0.200   0.000    0.00
   1.700   10.43    6.66   -4.70   0.000   0.200   0.000    0.00
   1.750   10.78    9.48   -4.57   0.000   0.200   0.000    0.00
   1.800   10.53    9.07   -2.64   0.000   0.200   0.000    0.00
   1.850   10.74   13.85   -1.67   0.000   0.200   0.000    0.00
   1.900   10.10   11.77   -1.61   0.000   0.200   0.000    0.00
   1.950   10.18    9.47   -1.45   0.000   0.200   0.000    0.00
   2.000   10.31   11.15   -0.30   0.000   0.200   0.000    0.00
   2.050   10.14   12.69    0.49   0.000   0.200   0.000    0.00
   2.100    9.99   15.47    0.08   0.000   0.200   0.000    0.00
   2.150    9.05   13.31   -0.07   0.000   0.200   0.000    0.00
   2.200    8.92    7.76    0.65   0.000   0.200   0.000    0.00
   2.250    9.50    8.25    0.11   0.000   0.200   0.000    0.00
   2.300    9.13    7.65    0.28   0.000   0.200   0.000    0.00
   2.350    9.04    3.55    0.63   0.000   0.200   0.000    0.00
   2.400    8.70    7.57    0.39   0.000   0.200   0.000    0.00
   2.450    8.99    5.79    0.08   0.000   0.200   0.000    0.00
   2.500    8.79    7.19    0.06   0.000   0.200   0.000    0.00
   2.550    8.20    1.35   -0.51   0.000   0.200   0.000    0.00
   2.600    8.83    0.37   -0.49   0.000   0.200   0.000    0.00
   2.650    8.76   -1.10   -0.40   0.000   0.200   0.000    0.00
   2.700    8.75    4.26   -0.80   0.000   0.200   0.000    0.00
   2.750    8.98    1.92   -0.95   0.000   0.200   0.000    0.00
   2.800    9.22   -1.76   -0.79   0.000   0.200   0.000    0.00
   2.850    8.07   -0.01   -1.71   0.000   0.200   0.000    0.00
   2.900    7.93    4.15   -1.26   0.000   0.200   0.000    0.00
   2.950    7.96   -4.88   -1.45   0.000   0.200   0.000    0.00
   3.000    8.59   -9.98   -1.33   0.000   0.200   0.000    0.00
   3.050    8.53  -11.49   -1.34   0.000   0.200   0.000    0.00
   3.100    7.65   -9.08   -1.09   0.000   0.200   0.000    0.00
   3.150    7.02   -5.32   -0.26   0.000   0.200   0.000    0.00
   3.200    6.36   -2.35   -1.37   0.000   0.200   0.000    0.00
   3.250    7.25   -8.17   -1.78   0.000   0.200   0.000    0.00
   3.300    6.98    0.59   -1.42   0.000   0.200   0.000    0.00
   3.350    6.91   -4.76   -0.95   0.000   0.200   0.000    0.00
   3.400    7.65  -12.72   -1.35   0.000   0.200   0.000    0.00
   3.450    6.73   -7.34   -0.50   0.000   0.200   0.000    0.00
   3.500    7.27   -9.65   -0.34   0.000   0.200   0.000    0.00
   3.550    7.60  -11.88   -0.09   0.000   0.200   0.000    0.00
   3.600    6.93   -8.09    0.16   0.000   0.200   0.000    0.00
   3.650    7.28   -7.64   -0.35   0.000   0.200   0.000    0.00
   3.700    7.54    3.16    0.72   0.000   0.200   0.000    0.00
   3.750    8.03    0.54    1.25   0.000   0.200   0.000    0.00
   3.800    7.99   -2.64    0.73   0.000   0.200   0.000    0.00
   3.850    7.33   -9.28    1.54   0.000   0.200   0.000    0.00
   3.900    7.11   -1.56    2.13   0.000   0.200   0.000    0.00
   3.950    7.05    8.81    2.45   0.000   0.200   0.000    0.00
   4.000    7.60    7.49    2.42   0.000   0.200   0.000    0.00
   4.050    7.63   11.68    1.41   0.000   0.200   0.000    0.00
   4.100    7.71    5.02    0.92   0.000   0.200   0.000    0.00
   4.150    7.17    6.04    1.31   0.000   0.200   0.000    0.00
   4.200    6.77    8.85    1.51   0.000   0.200   0.000    0.00
   4.250    7.11   16.15    0.98   0.000   0.200   0.000    0.00
   4.300    7.70   12.52    1.03   0.000   0.200   0.000    0.00
   4.350    6.99    8.18    1.59   0.000   0.200   0.000    0.00
   4.400    7.23   21.17    1.31   0.000   0.200   0.000    0.00
   4.450    6.99   19.89    1.38   0.000   0.200   0.000    0.00
   4.500    7.13   14.46    1.64   0.000   0.200   0.000    0.00
   4.550    7.05   20.05    0.76   0.000   0.200   0.000    0.00
   4.600    7.45   20.98    0.15   0.000   0.200   0.000    0.00
   4.650    7.92   18.76    0.71   0.000   0.200   0.000    0.00
   4.700    8.74   17.37    0.58   0.000   0.200   0.000    0.00
   4.750    9.64   19.18    0.48   0.000   0.200   0.000    0.00
   4.800    9.18   14.89    0.66   0.000   0.200   0.000    0.00
   4.850    8.94   13.07    1.51   0.000   0.200   0.000    0.00
   4.900    8.75    9.88    0.35   0.000   0.200   0.000    0.00
   4.950    8.58   13.44    0.82   0.000   0.200   0.000    0.00
   5.000    8.14    1.91    0.60   0.000   0.200   0.000    0.00
   5.050    8.58    2.73    0.76   0.000   0.200   0.000    0.00
   5.100    8.20   -0.92    0.77   0.000   0.200   0.000    0.00
   5.150    7.48    3.84    0.83   0.000   0.200   0.000    0.00
   5.200    6.79   -0.57    0.91   0.000   0.200   0.000    0.00
   5.250    7.98   10.59    0.48   0.000   0.200   0.000    0.00
   5.300    8.76    5.20    0.21   0.000   0.200   0.000    0.00
   5.350    9.54    5.58    1.06   0.000   0.200   0.000    0.00
   5.400    9.88   11.09    0.06   0.000   0.200   0.000    0.00
   5.450    9.61   12.72    0.53   0.000   0.200   0.000    0.00
   5.500    8.65   10.57    0.32   0.000   0.200   0.000    0.00
   5.550    9.06    9.88    0.56   0.000   0.200   0.000    0.00
   5.600    9.08   14.61    0.09   0.000   0.200   0.000    0.00
   5.650    9.49   14.02   -0.08   0.000   0.200   0.000    0.00
   5.700    9.21   19.21    0.31   0.000   0.200   0.000    0.00
   5.750    8.92   14.25    0.34   0.000   0.200   0.000    0.00
   5.800    8.63    8.39   -1.18   0.000   0.200   0.000    0.00
   5.850    8.01    7.93   -1.32   0.000   0.200   0.000    0.00
   5.900    8.43    0.86   -0.81   0.000   0.200   0.000    0.00
   5.950    8.54    3.26    0.60   0.000   0.200   0.000    0.00
   6.000    7.97    1.92    0.74   0.000   0.200   0.000    0.00
   6.050    8.17   -1.84    0.62   0.000   0.200   0.000    0.00
   6.100    8.63   -5.36    0.26   0.000   0.200   0.000    0.00
   6.150    8.46   -5.84   -0.39   0.000   0.200   0.000    0.00
   6.200    8.20   -3.52   -0.52   0.000   0.200   0.000    0.00
   6.250    8.72   -3.33   -1.04   0.000   0.200   0.000    0.00
   6.300    8.15   -5.25   -0.81   0.000   0.200   0.000    0.00
   6.350    8.15    1.13   -0.67   0.000   0.200   0.000    0.00
   6.400    8.56   -3.41    0.67   0.000   0.200   0.000    0.00
   6.450    8.37   -5.11    0.99   0.000   0.200   0.000    0.00
   6.500    7.89   -2.42   -0.24   0.000   0.200   0.000    0.00
   6.550    7.25   -6.46    0.06   0.000   0.200   0.000    0.00
   6.600    7.20   -1.43    0.53   0.000   0.200   0.000    0.00
   6.650    8.19   -2.82    0.54   0.000   0.200   0.000    0.00
   6.700    8.24    0.21   -0.03   0.000   0.200   0.000    0.00
   6.750    8.10   -6.36    0.17   0.000   0.200   0.000    0.00
   6.800    9.08  -16.04    1.34   0.000   0.200   0.000    0.00
   6.850   10.02  -20.43    0.56   0.000   0.200   0.000    0.00
   6.900    9.70  -20.24   -0.03   0.000   0.200   0.000    0.00
   6.950    9.06  -17.75   -0.78   0.000   0.200   0.000    0.00
   7.000    9.94  -17.79   -0.31   0.000   0.200   0.000    0.00
   7.050   10.09  -16.78   -1.11   0.000   0.200   0.000    0.00
   7.100    9.24  -21.41   -1.81   0.000   0.200   0.000    0.00
   7.150    9.27  -18.28   -1.85   0.000   0.200   0.000    0.00
   7.200    9.33  -16.79   -1.56   0.000   0.200   0.000    0.00
   7.250    8.74   -9.97   -0.92   0.000   0.200   0.000    0.00
   7.300    7.07   -4.45   -1.35   0.000   0.200   0.000    0.00
   7.350    7.41  -10.40   -1.45   0.000   0.200   0.000    0.00
   7.400    7.16   -6.84   -2.14   0.000   0.200   0.000    0.00
   7.450    7.87   -4.70   -1.95   0.000   0.200   0.000    0.00
   7.500    7.74   -0.55   -1.53   0.000   0.200   0.000    0.00
   7.550    7.11   -0.36   -2.28   0.000   0.200   0.000    0.00
   7.600    7.45   -9.26   -1.18   0.000   0.200   0.000    0.00
   7.650    7.14   -5.85    0.26   0.000   0.200   0.000    0.00
   7.700    7.31   -8.14   -0.12   0.000   0.200   0.000    0.00
   7.750    7.43   -4.66   -0.76   0.000   0.200   0.000    0.00
   7.800    8.33   -5.38   -1.54   0.000   0.200   0.000    0.00
   7.850    7.48   -2.90   -2.24   0.000   0.200   0.000    0.00
   7.900    7.85   -0.98   -2.59   0.000   0.200   0.000    0.00
   7.950    8.99    2.71   -2.46   0.000   0.200   0.000    0.00
   8.000    8.72    4.16   -1.93   0.000   0.200   0.000    0.00
   8.050    9.05    3.91   -2.70   0.000   0.200   0.000    0.00
   8.100    9.03   -0.13   -2.94   0.000   0.200   0.000    0.00
   8.150    9.25   -0.65   -3.36   0.000   0.200   0.000    0.00
   8.200    9.90   -0.80   -2.93   0.000   0.200   0.000    0.00
   8.250    9.62    2.92   -2.34   0.000   0.200   0.000    0.00
   8.300    8.43   -4.09   -2.04   0.000   0.200   0.000    0.00
   8.350    7.52   -1.70   -1.78   0.000   0.200   0.000    0.00
   8.400    7.64    3.63   -2.18   0.000   0.200   0.000    0.00
   8.450    7.51    3.63   -2.85   0.000   0.200   0.000    0.00
   8.500    8.54    8.34   -2.66   0.000   0.200   0.000    0.00
   8.550    9.16    4.76   -2.34   0.000   0.200   0.000    0.00
   8.600    8.95    0.74   -2.01   0.000   0.200   0.000    0.00
   8.650    9.17    1.83   -1.31   0.000   0.200   0.000    0.00
   8.700    9.26   -1.52   -1.26   0.000   0.200   0.000    0.00
   8.750    8.90   -1.03   -2.07   0.000   0.200   0.000    0.00
   8.800    8.70    8.20   -1.75   0.000   0.200   0.000    0.00
   8.850    8.77    4.85   -1.56   0.000   0.200   0.000    0.00
   8.900    8.64   10.67   -1.91   0.000   0.200   0.000    0.00
   8.950    8.73   14.46   -2.22   0.000   0.200   0.000    0.00
   9.000    7.89   14.74   -1.99   0.000   0.200   0.000    0.00
   9.050    7.90   17.80   -1.75   0.000   0.200   0.000    0.00
   9.100    8.18   15.56   -2.32   0.000   0.200   0.000    0.00
   9.150    8.79   14.05   -1.34   0.000   0.200   0.000    0.00
   9.200    8.82   13.56   -0.57   0.000   0.200   0.000    0.00
   9.250    9.23   12.54   -1.03   0.000   0.200   0.000    0.00
   9.300    9.15    5.56   -2.57   0.000   0.200   0.000    0.00
   9.350    8.93    0.08   -2.24   0.000   0.200   0.000    0.00
   9.400    8.81   -4.50   -1.03   0.000   0.200   0.000    0.00
   9.450    9.26   -3.68   -0.19   0.000   0.200   0.000    0.00
   9.500    8.98   -0.49    0.17   0.000   0.200   0.000    0.00
   9.550    9.01   -3.35    0.29   0.000   0.200   0.000    0.00
   9.600    9.03   -0.48    0.38   0.000   0.200   0.000    0.00
   9.650    9.66    0.21   -1.13   0.000   0.200   0.000    0.00
   9.700    9.87    5.14   -1.69   0.000   0.200   0.000    0.00
   9.750    9.17   12.12   -1.71   0.000   0.200   0.000    0.00
   9.800    8.53    5.55   -0.16   0.000   0.200   0.000    0.00
   9.850    9.10    0.98   -0.61   0.000   0.200   0.000    0.00
   9.900    9.36   -8.42   -0.42   0.000   0.200   0.000    0.00
   9.950    9.57   -7.07    0.58   0.000   0.200   0.000    0.00
  10.000    9.49   -6.62    0.92   0.000   0.200   0.000    0.00
  10.050    9.89   -0.01    1.04   0.000   0.200   0.000    0.00
  10.100   10.08    4.54    0.66   0.000   0.200   0.000    0.00
  10.150   10.46    0.25    0.82   0.000   0.200   0.000    0.00
  10.200   10.20   -1.52    0.19   0.000   0.200   0.000    0.00
  10.250   10.15   -1.05   -0.90   0.000   0.200   0.000    0.00
  10.300    9.54   -2.71   -0.73   0.000   0.200   0.000    0.00
  10.350    9.49   -4.71   -0.76   0.000   0.200   0.000    0.00
  10.400    9.57   -6.46   -1.73   0.000   0.200   0.000    0.00
  10.450    9.09   -5.58   -1.92   0.000   0.200   0.000    0.00
  10.500    8.98   -4.56   -2.06   0.000   0.200   0.000    0.00
  10.550    9.11   -2.69   -1.66   0.000   0.200   0.000    0.00
  10.600    9.49   -4.55   -1.24   0.000   0.200   0.000    0.00
  10.650    9.13   -0.19   -1.42   0.000   0.200   0.000    0.00
  10.700    9.47    1.65   -0.60   0.000   0.200   0.000    0.00
  10.750   10.12    0.54   -0.40   0.000   0.200   0.000    0.00
  10.800    9.49    4.27   -1.31   0.000   0.200   0.000    0.00
  10.850    9.06    4.80   -1.52   0.000   0.200   0.000    0.00
  10.900    8.84    7.39   -1.37   0.000   0.200   0.000    0.00
  10.950    7.69   10.66   -1.53   0.000   0.200   0.000    0.00
  11.000    7.84   -2.32   -1.59   0.000   0.200   0.000    0.00
  11.050    8.64   -2.85   -0.70   0.000   0.200   0.000    0.00
  11.100    9.36   -1.36   -0.62   0.000   0.200   0.000    0.00
  11.150    9.48   -2.15    0.92   0.000   0.200   0.000    0.00
  11.200    9.31   -1.94    0.63   0.000   0.200   0.000    0.00
  11.250    9.20   -1.23   -0.20   0.000   0.200   0.000    0.00
  11.300    9.25   -1.00   -0.90   0.000   0.200   0.000    0.00
  11.350    8.42   -9.29   -1.33   0.000   0.200   0.000    0.00
  11.400    8.40   -4.84   -1.14   0.000   0.200   0.000    0.00
  11.450    8.40  -12.94   -1.30   0.000   0.200   0.000    0.00
  11.500    8.45  -16.11   -0.38   0.000   0.200   0.000    0.00
  11.550    7.26   -9.14   -1.53   0.000   0.200   0.000    0.00
  11.600    6.35  -12.49   -1.12   0.000   0.200   0.000    0.00
  11.650    7.22  -11.32   -1.33   0.000   0.200   0.000    0.00
  11.700    7.81  -16.52   -1.70   0.000   0.200   0.000    0.00
  11.750    7.01  -17.57   -1.49   0.000   0.200   0.000    0.00
  11.800    6.63  -24.40   -1.17   0.000   0.200   0.000    0.00
  11.850    7.40  -23.94   -0.81   0.000   0.200   0.000    0.00
  11.900    7.07  -20.12   -0.81   0.000   0.200   0.000    0.00
  11.950    6.60  -29.31   -0.72   0.000   0.200   0.000    0.00
  12.000    7.40  -27.51   -1.67   0.000   0.200   0.000    0.00
  12.050    7.30  -23.35   -1.44   0.000   0.200   0.000    0.00
  12.100    6.92  -23.27   -1.34   0.000   0.200   0.000    0.00
  12.150    7.38  -26.92   -1.75   0.000   0.200   0.000    0.00
  12.200    6.81  -34.33   -2.02   0.000   0.200   0.000    0.00
  12.250    7.41  -33.08   -3.22   0.000   0.200   0.000    0.00
  12.300    6.71  -29.35   -2.56   0.000   0.200   0.000    0.00
  12.350    6.12  -22.26   -4.19   0.000   0.200   0.000    0.00
  12.400    6.93  -33.74   -3.74   0.000   0.200   0.000    0.00
  12.450    7.22  -35.48   -2.33   0.000   0.200   0.000    0.00
  12.500    7.46  -35.51   -1.64   0.000   0.200   0.000    0.00
  12.550    7.22  -34.67   -0.84   0.000   0.200   0.000    0.00
  12.600    7.44  -26.94   -1.41   0.000   0.200   0.000    0.00
  12.650    7.83  -29.52   -1.36   0.000   0.200   0.000    0.00
  12.700    7.66  -26.84   -0.76   0.000   0.200   0.000    0.00
  12.750    6.89  -26.95   -0.72   0.000   0.200   0.000    0.00
  12.800    6.67  -28.81   -0.70   0.000   0.200   0.000    0.00
  12.850    6.87  -30.04   -0.75   0.000   0.200   0.000    0.00
  12.900    7.87  -35.03    0.11   0.000   0.200   0.000    0.00
  12.950    7.22  -33.54   -0.77   0.000   0.200   0.000    0.00
  13.000    7.55  -34.93   -0.72   0.000   0.200   0.000    0.00
  13.050    8.30  -33.76   -0.39   0.000   0.200   0.000    0.00
  13.100    8.08  -25.02   -0.90   0.000   0.200   0.000    0.00
  13.150    7.50  -25.95   -0.72   0.000   0.200   0.000    0.00
  13.200    7.11  -30.94   -0.54   0.000   0.200   0.000    0.00
  13.250    7.66  -32.28   -0.12   0.000   0.200   0.000    0.00
  13.300    7.58  -31.79   -0.76   0.000   0.200   0.000    0.00
  13.350    7.54  -30.46   -1.36   0.000   0.200   0.000    0.00
  13.400    8.36  -20.82   -0.91   0.000   0.200   0.000    0.00
  13.450    8.55  -26.17   -0.53   0.000   0.200   0.000    0.00
  13.500    8.22  -28.42   -0.51   0.000   0.200   0.000    0.00
  13.550    8.19  -26.46   -0.77   0.000   0.200   0.000    0.00
  13.600    8.33  -19.85   -0.29   0.000   0.200   0.000    0.00
  13.650    8.18  -16.13   -0.70   0.000   0.200   0.000    0.00
  13.700    8.25   -5.63   -1.22   0.000   0.200   0.000    0.00
  13.750    8.12   -3.88   -1.37   0.000   0.200   0.000    0.00
  13.800    7.29    5.85   -1.72   0.000   0.200   0.000    0.00
  13.850    7.01   -4.02   -1.73   0.000   0.200   0.000    0.00
  13.900    7.36   -9.95   -1.74   0.000   0.200   0.000    0.00
  13.950    6.63   -8.20   -1.72   0.000   0.200   0.000    0.00
  14.000    7.60   -4.61   -1.93   0.000   0.200   0.000    0.00
  14.050    7.59   -1.80   -2.85   0.000   0.200   0.000    0.00
  14.100    8.03   -2.95   -2.35   0.000   0.200   0.000    0.00
  14.150    8.14    0.49   -3.28   0.000   0.200   0.000    0.00
  14.200    8.32   -2.13   -3.08   0.000   0.200   0.000    0.00
  14.250    7.56   -2.22   -2.71   0.000   0.200   0.000    0.00
  14.300    7.54    0.78   -3.11   0.000   0.200   0.000    0.00
  14.350    8.21    5.99   -3.72   0.000   0.200   0.000    0.00
  14.400    9.32    4.72   -4.02   0.000   0.200   0.000    0.00
  14.450    8.63   -1.55   -3.48   0.000   0.200   0.000    0.00
  14.500    7.65   -4.48   -3.16   0.000   0.200   0.000    0.00
  14.550    7.67   -5.01   -3.13   0.000   0.200   0.000    0.00
  14.600    7.80   -9.38   -3.33   0.000   0.200   0.000    0.00
  14.650    7.94   -9.57   -3.15   0.000   0.200   0.000    0.00
  14.700    8.12  -14.71   -2.71   0.000   0.200   0.000    0.00
  14.750    8.71  -15.77   -3.25   0.000   0.200   0.000    0.00
  14.800    9.48  -17.10   -3.30   0.000   0.200   0.000    0.00
  14.850    9.38  -17.99   -2.34   0.000   0.200   0.000    0.00
  14.900    9.37  -14.31   -2.51   0.000   0.200   0.000    0.00
  14.950    8.90  -11.71   -2.12   0.000   0.200   0.000    0.00
  15.000    8.31  -10.27   -0.68   0.000   0.200   0.000    0.00
  15.050    9.08  -12.39   -0.60   0.000   0.200   0.000    0.00
  15.100    9.89  -15.65   -0.32   0.000   0.200   0.000    0.00
  15.150    8.70  -19.06    0.51   0.000   0.200   0.000    0.00
  15.200    7.83  -18.86    0.02   0.000   0.200   0.000    0.00
  15.250    8.52  -14.98   -0.70   0.000   0.200   0.000    0.00
  15.300    9.38  -13.61    0.17   0.000   0.200   0.000    0.00
  15.350    9.35  -21.04    1.11   0.000   0.200   0.000    0.00
  15.400   10.15  -16.49    0.16   0.000   0.200   0.000    0.00
  15.450    9.74   -9.17   -0.19   0.000   0.200   0.000    0.00
  15.500    9.79  -10.68   -0.51   0.000   0.200   0.000    0.00
  15.550    9.81   -5.07   -0.28   0.000   0.200   0.000    0.00
  15.600    9.33   -5.22   -1.16   0.000   0.200   0.000    0.00
  15.650    9.87   -6.68   -0.93   0.000   0.200   0.000    0.00
  15.700   10.11   -4.64   -0.80   0.000   0.200   0.000    0.00
  15.750    9.91   -5.61   -0.65   0.000   0.200   0.000    0.00
  15.800    9.94   -3.96   -0.67   0.000   0.200   0.000    0.00
  15.850   10.54   -0.63    0.02   0.000   0.200   0.000    0.00
  15.900   10.72   -4.67    0.29   0.000   0.200   0.000    0.00
  15.950   11.40   -5.78   -0.21   0.000   0.200   0.000    0.00
  16.000   11.80   -2.49   -0.90   0.000   0.200   0.000    0.00
  16.050   12.84   -3.71   -2.39   0.000   0.200   0.000    0.00
  16.100   12.37   -4.68   -2.67   0.000   0.200   0.000    0.00
  16.150   12.37   -1.50   -2.47   0.000   0.200   0.000    0.00
  16.200   12.97   -0.12   -1.77   0.000   0.200   0.000    0.00
  16.250   12.78    0.68   -3.00   0.000   0.200   0.000    0.00
  16.300   11.97   -0.57   -3.09   0.000   0.200   0.000    0.00
  16.350   11.87    3.75   -2.94   0.000   0.200   0.000    0.00
  16.400   11.38    3.09   -3.10   0.000   0.200   0.000    0.00
  16.450   10.56   -1.02   -3.40   0.000   0.200   0.000    0.00
  16.500    9.81   -0.88   -3.08   0.000   0.200   0.000    0.00
  16.550   10.21    2.07   -2.94   0.000   0.200   0.000    0.00
  16.600   10.20    6.49   -2.58   0.000   0.200   0.000    0.00
  16.650    9.50    4.51   -2.53   0.000   0.200   0.000    0.00
  16.700    9.14    4.82   -1.98   0.000   0.200   0.000    0.00
  16.750    9.30    8.97   -1.55   0.000   0.200   0.000    0.00
  16.800   10.34   10.14   -1.73   0.000   0.200   0.000    0.00
  16.850   10.26   10.87   -1.16   0.000   0.200   0.000    0.00
  16.900   10.22   16.03   -1.80   0.000   0.200   0.000    0.00
  16.950    9.44   14.77   -1.70   0.000   0.200   0.000    0.00
  17.000    9.47   13.81   -1.36   0.000   0.200   0.000    0.00
  17.050    9.57   17.24   -1.49   0.000   0.200   0.000    0.00
  17.100    9.29   13.24   -0.47   0.000   0.200   0.000    0.00
  17.150    8.61    5.64   -0.40   0.000   0.200   0.000    0.00
  17.200    8.65    5.05    0.12   0.000   0.200   0.000    0.00
  17.250    8.51    9.79    0.79   0.000   0.200   0.000    0.00
  17.300    8.03    7.16   -0.30   0.000   0.200   0.000    0.00
  17.350    8.46    7.81   -0.27   0.000   0.200   0.000    0.00
  17.400    8.93    3.77   -0.31   0.000   0.200   0.000    0.00
  17.450    8.17    2.23    0.56   0.000   0.200   0.000    0.00
  17.500    8.55   -1.40    0.53   0.000   0.200   0.000    0.00
  17.550    9.36   -1.35    1.15   0.000   0.200   0.000    0.00
  17.600    9.62   -7.96    0.58   0.000   0.200   0.000    0.00
  17.650    9.92   -8.92    0.69   0.000   0.200   0.000    0.00
  17.700    8.99   -1.32    1.56   0.000   0.200   0.000    0.00
  17.750    9.37   -1.74    0.64   0.000   0.200   0.000    0.00
  17.800    9.39    4.03    0.46   0.000   0.200   0.000    0.00
  17.850    9.52    1.37    0.12   0.000   0.200   0.000    0.00
  17.900    9.91    0.95    0.05   0.000   0.200   0.000    0.00
  17.950   10.18    1.98    0.30   0.000   0.200   0.000    0.00
  18.000    9.85    6.58    0.65   0.000   0.200   0.000    0.00
  18.050   10.10    6.62    0.67   0.000   0.200   0.000    0.00
  18.100   10.59    5.53    0.14   0.000   0.200   0.000    0.00
  18.150   10.20   10.71   -0.23   0.000   0.200   0.000    0.00
  18.200   10.57    8.19    0.11   0.000   0.200   0.000    0.00
  18.250   10.37    4.77    0.62   0.000   0.200   0.000    0.00
  18.300   10.36    5.01    0.12   0.000   0.200   0.000    0.00
  18.350    9.06    5.20    0.46   0.000   0.200   0.000    0.00
  18.400    9.85   10.44    0.34   0.000   0.200   0.000    0.00
  18.450   10.13   10.35    0.51   0.000   0.200   0.000    0.00
  18.500    9.78    7.09    1.60   0.000   0.200   0.000    0.00
  18.550    9.73    3.58    1.46   0.000   0.200   0.000    0.00
  18.600    9.44    4.93    1.89   0.000   0.200   0.000    0.00
  18.650    8.83    5.71    1.17   0.000   0.200   0.000    0.00
  18.700    8.39    6.99    0.63   0.000   0.200   0.000    0.00
  18.750    8.56    8.14    0.79   0.000   0.200   0.000    0.00
  18.800    8.30    9.35    0.52   0.000   0.200   0.000    0.00
  18.850    8.56    6.14    0.30   0.000   0.200   0.000    0.00
  18.900    8.84    8.65    1.07   0.000   0.200   0.000    0.00
  18.950    9.54    9.67    1.99   0.000   0.200   0.000    0.00
  19.000   10.15   14.37    1.38   0.000   0.200   0.000    0.00
  19.050    9.87   13.05    1.14   0.000   0.200   0.000    0.00
  19.100   10.39   11.33    0.53   0.000   0.200   0.000    0.00
  19.150   10.73   10.05    0.24   0.000   0.200   0.000    0.00
  19.200   10.79    9.13    0.22   0.000   0.200   0.000    0.00
  19.250   10.28   12.44   -0.02   0.000   0.200   0.000    0.00
  19.300    9.11    5.01   -0.62   0.000   0.200   0.000    0.00
  19.350    9.70    7.13   -0.47   0.000   0.200   0.000    0.00
  19.400    9.68    4.49   -0.29   0.000   0.200   0.000    0.00
  19.450    9.04    2.47    0.66   0.000   0.200   0.000    0.00
  19.500    9.44    3.94    1.17   0.000   0.200   0.000    0.00
  19.550    9.16    8.60    2.36   0.000   0.200   0.000    0.00
  19.600    9.26   10.36    3.30   0.000   0.200   0.000    0.00
  19.650    9.50    9.72    4.19   0.000   0.200   0.000    0.00
  19.700   10.05    6.88    3.60   0.000   0.200   0.000    0.00
  19.750    9.26    3.97    3.72   0.000   0.200   0.000    0.00
  19.800    9.13   10.53    4.31   0.000   0.200   0.000    0.00
  19.850    9.19    3.89    3.09   0.000   0.200   0.000    0.00
  19.900    9.29   -1.13    2.76   0.000   0.200   0.000    0.00
  19.950    9.12   -1.96    2.69   0.000   0.200   0.000    0.00
  20.000    9.11   -3.72    2.22   0.000   0.200   0.000    0.00
  20.050    8.65   -2.51    2.03   0.000   0.200   0.000    0.00
  20.100    8.21   -6.51    1.98   0.000   0.200   0.000    0.00
  20.150    7.96  -10.05    2.05   0.000   0.200   0.000    0.00
  20.200    8.22  -12.59    2.30   0.000   0.200   0.000    0.00
  20.250    8.37  -17.19    2.25   0.000   0.200   0.000    0.00
  20.300    8.38  -15.27    1.37   0.000   0.200   0.000    0.00
  20.350    9.01  -14.35    2.01   0.000   0.200   0.000    0.00
  20.400    9.27  -12.25    2.43   0.000   0.200   0.000    0.00
  20.450    9.10  -11.48    1.28   0.000   0.200   0.000    0.00
  20.500    9.40  -11.75    1.14   0.000   0.200   0.000    0.00
  20.550    9.08  -13.79    1.81   0.000   0.200   0.000    0.00
  20.600    9.25   -9.64    0.57   0.000   0.200   0.000    0.00
  20.650    8.88  -10.42    1.58   0.000   0.200   0.000    0.00
  20.700    7.39   -4.13    1.61   0.000   0.200   0.000    0.00
  20.750    7.90   -6.61    1.42   0.000   0.200   0.000    0.00
  20.800    7.95   -6.41    1.75   0.000   0.200   0.000    0.00
  20.850    7.75   -4.13    1.71   0.000   0.200   0.000    0.00
  20.900    8.64  -13.47    2.42   0.000   0.200   0.000    0.00
  20.950    8.27   -7.55    1.86   0.000   0.200   0.000    0.00
  21.000    7.60   -3.82    1.16   0.000   0.200   0.000    0.00
  21.050    7.42   -9.67   -0.18   0.000   0.200   0.000    0.00
  21.100    8.00   -5.86   -0.22   0.000   0.200   0.000    0.00
  21.150    7.66   -3.96    0.94   0.000   0.200   0.000    0.00
  21.200    6.75    0.51    1.20   0.000   0.200   0.000    0.00
  21.250    8.04    5.45    1.47   0.000   0.200   0.000    0.00
  21.300    8.76    6.92    2.31   0.000   0.200   0.000    0.00
  21.350    8.39    5.85    2.32   0.000   0.200   0.000    0.00
  21.400    8.79    5.54    1.48   0.000   0.200   0.000    0.00
  21.450    8.98    6.27    1.04   0.000   0.200   0.000    0.00
  21.500    9.94    4.08    0.04   0.000   0.200   0.000    0.00
  21.550   10.65    4.57    0.42   0.000   0.200   0.000    0.00
  21.600   10.98    4.24   -0.01   0.000   0.200   0.000    0.00
  21.650   10.24    7.70   -0.11   0.000   0.200   0.000    0.00
  21.700   10.56    9.83   -0.52   0.000   0.200   0.000    0.00
  21.750   11.33    6.28   -1.19   0.000   0.200   0.000    0.00
  21.800   12.02    4.52   -1.62   0.000   0.200   0.000    0.00
  21.850   12.79    5.52   -0.97   0.000   0.200   0.000    0.00
  21.900   12.93    6.77   -0.42   0.000   0.200   0.000    0.00
  21.950   12.88   -0.17   -0.88   0.000   0.200   0.000    0.00
  22.000   12.21   -2.69   -0.24   0.000   0.200   0.000    0.00
  22.050   11.94   -3.50   -0.58   0.000   0.200   0.000    0.00
  22.100   10.89    1.69   -1.13   0.000   0.200   0.000    0.00
  22.150   11.07    1.76   -1.50   0.000   0.200   0.000    0.00
  22.200   11.16   -3.03   -0.80   0.000   0.200   0.000    0.00
  22.250   11.03   -0.90   -0.70   0.000   0.200   0.000    0.00
  22.300   11.58   -0.50   -0.72   0.000   0.200   0.000    0.00
  22.350   12.04   -3.82    0.85   0.000   0.200   0.000    0.00