! This hub-height wind-speed file was generated by TurbSim (v1.06.00, 21-Sep-2012) on 16-Jun-2018 at 18:35:35.
!
! The requested statistics for this data were:
!    Mean Total Wind Speed =    7.000 m/s
!    Turbulence Intensity  =   38.848%
!
!   Time  HorSpd  WndDir  VerSpd  HorShr  VerShr  LnVShr  GstSpd
!  (sec)   (m/s)   (deg)   (m/s)     (-)     (-)     (-)   (m/s)
   0.000    8.98   35.91   -1.36   0.000   0.200   0.000    0.00
   0.050    8.64   36.28   -1.28   0.000   0.200   0.000    0.00
   0.100    8.17   32.90   -1.04   0.000   0.200   0.000    0.00
   0.150    8.24   24.81   -0.96   0.000   0.200   0.000    0.00
   0.200    8.22   24.82   -1.31   0.000   0.200   0.000    0.00
   0.250    8.11   25.67   -0.54   0.000   0.200   0.000    0.00
   0.300    8.04   21.71   -0.22   0.000   0.200   0.000    0.00
   0.350    8.25   23.15    0.36   0.000   0.200   0.000    0.00
   0.400    8.31   24.49    0.95   0.000   0.200   0.000    0.00
   0.450    8.58   22.07    0.14   0.000   0.200   0.000    0.00
   0.500    9.22   24.13    0.17   0.000   0.200   0.000    0.00
   0.550    8.71   24.11    0.65   0.000   0.200   0.000    0.00
   0.600    8.80   26.44    0.33   0.000   0.200   0.000    0.00
   0.650    9.71   26.41   -0.15   0.000   0.200   0.000    0.00
   0.700    9.41   27.73    0.02   0.000   0.200   0.000    0.00
   0.750    9.44   21.77    0.19   0.000   0.200   0.000    0.00
   0.800    9.14   21.75    0.19   0.000   0.200   0.000    0.00
   0.850    9.14   24.30    0.04   0.000   0.200   0.000    0.00
   0.900    8.79   22.79    0.45   0.000   0.200   0.000    0.00
   0.950    8.85   21.16    0.44   0.000   0.200   0.000    0.00
   1.000    8.78   20.50   -0.01   0.000   0.200   0.000    0.00
   1.050    8.54   19.53    0.23   0.000   0.200   0.000    0.00
   1.100    9.28   22.62    0.25   0.000   0.200   0.000    0.00
   1.150    9.29   25.45   -0.18   0.000   0.200   0.000    0.00
   1.200    9.21   20.73    0.19   0.000   0.200   0.000    0.00
   1.250    8.98   20.94    0.22   0.000   0.200   0.000    0.00
   1.300    9.23   21.72   -0.24   0.000   0.200   0.000    0.00
   1.350    9.82   24.34   -0.34   0.000   0.200   0.000    0.00
   1.400    9.70   21.14    0.20   0.000   0.200   0.000    0.00
   1.450    9.76   16.15    0.01   0.000   0.200   0.000    0.00
   1.500    9.55   20.51   -0.44   0.000   0.200   0.000    0.00
   1.550    9.75   18.13   -0.66   0.000   0.200   0.000    0.00
   1.600    9.79   17.45   -0.96   0.000   0.200   0.000    0.00
   1.650    9.94   15.87   -0.94   0.000   0.200   0.000    0.00
   1.700    9.70   16.95   -1.15   0.000   0.200   0.000    0.00
   1.750    9.43   15.94   -1.16   0.000   0.200   0.000    0.00
   1.800    9.40   15.72   -1.35   0.000   0.200   0.000    0.00
   1.850    9.62   17.64   -0.94   0.000   0.200   0.000    0.00
   1.900    9.39   22.13   -1.17   0.000   0.200   0.000    0.00
   1.950    9.25   22.98   -1.54   0.000   0.200   0.000    0.00
   2.000    9.97   25.58   -0.88   0.000   0.200   0.000    0.00
   2.050    9.75   25.58   -0.46   0.000   0.200   0.000    0.00
   2.100    9.79   25.31   -0.45   0.000   0.200   0.000    0.00
   2.150    9.82   27.52   -0.82   0.000   0.200   0.000    0.00
   2.200    9.36   24.07   -0.45   0.000   0.200   0.000    0.00
   2.250    9.81   20.25   -0.04   0.000   0.200   0.000    0.00
   2.300    9.77   24.11    0.10   0.000   0.200   0.000    0.00
   2.350   10.48   26.83   -0.10   0.000   0.200   0.000    0.00
   2.400   10.57   29.10    0.33   0.000   0.200   0.000    0.00
   2.450   10.71   28.80    0.08   0.000   0.200   0.000    0.00
   2.500   10.48   26.80   -0.45   0.000   0.200   0.000    0.00
   2.550   10.53   24.13   -0.59   0.000   0.200   0.000    0.00
   2.600   10.31   28.91   -0.91   0.000   0.200   0.000    0.00
   2.650   10.44   35.53   -1.38   0.000   0.200   0.000    0.00
   2.700   10.07   31.92   -0.86   0.000   0.200   0.000    0.00
   2.750   10.23   34.50   -0.83   0.000   0.200   0.000    0.00
   2.800    9.35   30.53   -1.55   0.000   0.200   0.000    0.00
   2.850    9.10   32.08   -1.85   0.000   0.200   0.000    0.00
   2.900    8.82   31.01   -2.38   0.000   0.200   0.000    0.00
   2.950    9.18   27.81   -2.01   0.000   0.200   0.000    0.00
   3.000    8.99   27.94   -1.60   0.000   0.200   0.000    0.00
   3.050    9.26   30.52   -2.25   0.000   0.200   0.000    0.00
   3.100    8.75   29.90   -2.07   0.000   0.200   0.000    0.00
   3.150    8.18   29.02   -2.15   0.000   0.200   0.000    0.00
   3.200    8.64   27.56   -1.94   0.000   0.200   0.000    0.00
   3.250    9.21   26.17   -1.46   0.000   0.200   0.000    0.00
   3.300    8.79   27.72   -1.29   0.000   0.200   0.000    0.00
   3.350    8.93   28.79   -1.05   0.000   0.200   0.000    0.00
   3.400    8.84   31.42   -1.34   0.000   0.200   0.000    0.00
   3.450    9.04   30.23   -0.89   0.000   0.200   0.000    0.00
   3.500    8.79   28.34   -0.96   0.000   0.200   0.000    0.00
   3.550    8.94   27.75   -0.94   0.000   0.200   0.000    0.00
   3.600    9.77   26.58   -0.90   0.000   0.200   0.000    0.00
   3.650    9.78   27.21   -0.80   0.000   0.200   0.000    0.00
   3.700    9.89   28.77   -0.91   0.000   0.200   0.000    0.00
   3.750   10.73   29.88   -0.62   0.000   0.200   0.000    0.00
   3.800   10.30   31.57   -0.71   0.000   0.200   0.000    0.00
   3.850   11.02   30.91   -0.47   0.000   0.200   0.000    0.00
   3.900   11.21   31.35   -0.34   0.000   0.200   0.000    0.00
   3.950   11.52   33.61   -0.39   0.000   0.200   0.000    0.00
   4.000   10.74   34.57   -0.47   0.000   0.200   0.000    0.00
   4.050   10.38   30.64   -0.56   0.000   0.200   0.000    0.00
   4.100    9.94   33.81   -0.07   0.000   0.200   0.000    0.00
   4.150    9.98   34.95   -0.32   0.000   0.200   0.000    0.00
   4.200   10.10   36.29    0.09   0.000   0.200   0.000    0.00
   4.250   10.92   35.92   -0.03   0.000   0.200   0.000    0.00
   4.300   10.50   34.49   -0.32   0.000   0.200   0.000    0.00
   4.350   10.23   37.32    0.15   0.000   0.200   0.000    0.00
   4.400   10.11   35.10    0.44   0.000   0.200   0.000    0.00
   4.450   10.07   35.97    0.06   0.000   0.200   0.000    0.00
   4.500   11.02   36.18    0.49   0.000   0.200   0.000    0.00
   4.550   10.67   35.42    0.07   0.000   0.200   0.000    0.00
   4.600   10.93   36.80   -0.19   0.000   0.200   0.000    0.00
   4.650   10.93   37.15   -0.09   0.000   0.200   0.000    0.00
   4.700   10.70   39.35   -0.59   0.000   0.200   0.000    0.00
   4.750   10.89   40.23   -0.42   0.000   0.200   0.000    0.00
   4.800   10.40   38.57   -0.35   0.000   0.200   0.000    0.00
   4.850   10.32   37.27   -0.65   0.000   0.200   0.000    0.00
   4.900   10.35   38.88   -0.44   0.000   0.200   0.000    0.00
   4.950   11.27   39.24   -0.26   0.000   0.200   0.000    0.00
   5.000   11.38   40.28   -0.28   0.000   0.200   0.000    0.00
   5.050   10.29   39.89   -0.29   0.000   0.200   0.000    0.00
   5.100   10.85   38.24   -0.38   0.000   0.200   0.000    0.00
   5.150   10.75   35.51   -0.83   0.000   0.200   0.000    0.00
   5.200   11.15   31.23   -0.89   0.000   0.200   0.000    0.00
   5.250   11.25   31.16   -1.28   0.000   0.200   0.000    0.00
   5.300   11.43   32.46   -1.20   0.000   0.200   0.000    0.00
   5.350   10.58   32.41   -0.74   0.000   0.200   0.000    0.00
   5.400   10.56   35.81    0.31   0.000   0.200   0.000    0.00
   5.450   10.50   35.97   -0.20   0.000   0.200   0.000    0.00
   5.500   10.50   38.77   -0.12   0.000   0.200   0.000    0.00
   5.550   10.47   38.54   -0.30   0.000   0.200   0.000    0.00
   5.600   10.62   34.59   -0.57   0.000   0.200   0.000    0.00
   5.650   10.03   34.49   -0.72   0.000   0.200   0.000    0.00
   5.700    9.90   37.24   -0.91   0.000   0.200   0.000    0.00
   5.750    9.86   36.65   -0.91   0.000   0.200   0.000    0.00
   5.800    9.81   36.01   -0.63   0.000   0.200   0.000    0.00
   5.850    9.99   36.23   -0.41   0.000   0.200   0.000    0.00
   5.900    9.62   33.17   -0.44   0.000   0.200   0.000    0.00
   5.950    9.85   34.67   -0.11   0.000   0.200   0.000    0.00
   6.000    9.84   32.06   -0.48   0.000   0.200   0.000    0.00
   6.050   10.13   32.92   -0.79   0.000   0.200   0.000    0.00
   6.100    9.82   34.87   -0.27   0.000   0.200   0.000    0.00
   6.150   10.00   37.87   -0.05   0.000   0.200   0.000    0.00
   6.200   10.29   39.72   -0.58   0.000   0.200   0.000    0.00
   6.250   10.05   40.72   -1.16   0.000   0.200   0.000    0.00
   6.300    9.92   38.89   -0.97   0.000   0.200   0.000    0.00
   6.350    8.90   35.37   -0.64   0.000   0.200   0.000    0.00
   6.400    8.46   33.72   -0.83   0.000   0.200   0.000    0.00
   6.450    8.31   36.12   -1.04   0.000   0.200   0.000    0.00
   6.500    8.22   33.97   -0.89   0.000   0.200   0.000    0.00
   6.550    7.92   37.90   -0.75   0.000   0.200   0.000    0.00
   6.600    8.63   40.78   -0.63   0.000   0.200   0.000    0.00
   6.650    9.00   43.81   -0.55   0.000   0.200   0.000    0.00
   6.700    8.77   38.62   -1.34   0.000   0.200   0.000    0.00
   6.750    7.55   34.49   -1.35   0.000   0.200   0.000    0.00
   6.800    7.20   39.59   -0.90   0.000   0.200   0.000    0.00
   6.850    7.99   41.66   -0.76   0.000   0.200   0.000    0.00
   6.900    8.04   39.61   -0.86   0.000   0.200   0.000    0.00
   6.950    8.46   37.40   -0.69   0.000   0.200   0.000    0.00
   7.000    8.50   44.16   -1.33   0.000   0.200   0.000    0.00
   7.050    8.42   40.66   -1.26   0.000   0.200   0.000    0.00
   7.100    8.89   38.99   -1.02   0.000   0.200   0.000    0.00
   7.150    8.80   33.53   -0.88   0.000   0.200   0.000    0.00
   7.200    8.59   33.66   -0.76   0.000   0.200   0.000    0.00
   7.250    8.64   36.11   -1.09   0.000   0.200   0.000    0.00
   7.300    8.76   33.24   -0.22   0.000   0.200   0.000    0.00
   7.350    9.56   31.11   -0.12   0.000   0.200   0.000    0.00
   7.400   10.08   32.39   -0.20   0.000   0.200   0.000    0.00
   7.450    9.43   31.76   -0.72   0.000   0.200   0.000    0.00
   7.500    9.23   32.80   -0.57   0.000   0.200   0.000    0.00
   7.550    9.09   33.23   -0.52   0.000   0.200   0.000    0.00
   7.600    8.64   35.01   -0.39   0.000   0.200   0.000    0.00
   7.650    8.84   35.17    0.55   0.000   0.200   0.000    0.00
   7.700    9.11   36.70    0.38   0.000   0.200   0.000    0.00
   7.750    9.21   39.97    0.83   0.000   0.200   0.000    0.00
   7.800    9.00   36.27    1.50   0.000   0.200   0.000    0.00
   7.850    9.23   34.86    0.90   0.000   0.200   0.000    0.00
   7.900    9.80   35.99    1.02   0.000   0.200   0.000    0.00
   7.950    9.86   33.59    1.58   0.000   0.200   0.000    0.00
   8.000    9.44   34.32    1.35   0.000   0.200   0.000    0.00
   8.050    9.61   32.61    0.47   0.000   0.200   0.000    0.00
   8.100   10.10   31.96    0.12   0.000   0.200   0.000    0.00
   8.150    9.53   35.29    0.20   0.000   0.200   0.000    0.00
   8.200    9.50   35.42    1.07   0.000   0.200   0.000    0.00
   8.250   10.08   34.98    1.39   0.000   0.200   0.000    0.00
   8.300   10.36   36.69    1.82   0.000   0.200   0.000    0.00
   8.350   10.64   39.20    1.51   0.000   0.200   0.000    0.00
   8.400   10.41   39.83    0.48   0.000   0.200   0.000    0.00
   8.450   10.27   39.97    0.35   0.000   0.200   0.000    0.00
   8.500   10.33   39.88   -0.21   0.000   0.200   0.000    0.00
   8.550   10.89   38.92   -0.23   0.000   0.200   0.000    0.00
   8.600   10.54   37.35   -0.15   0.000   0.200   0.000    0.00
   8.650   10.76   37.82   -0.25   0.000   0.200   0.000    0.00
   8.700   10.72   36.27    0.64   0.000   0.200   0.000    0.00
   8.750   10.83   34.57    0.36   0.000   0.200   0.000    0.00
   8.800   10.13   31.98    1.11   0.000   0.200   0.000    0.00
   8.850    9.82   32.30    0.91   0.000   0.200   0.000    0.00
   8.900    9.36   32.44    0.29   0.000   0.200   0.000    0.00
   8.950    9.43   36.07   -0.06   0.000   0.200   0.000    0.00
   9.000    8.97   35.95    0.45   0.000   0.200   0.000    0.00
   9.050    8.27   35.74    0.39   0.000   0.200   0.000    0.00
   9.100    8.93   33.75   -0.25   0.000   0.200   0.000    0.00
   9.150    9.03   29.58   -0.37   0.000   0.200   0.000    0.00
   9.200    8.67   32.18    0.00   0.000   0.200   0.000    0.00
   9.250    8.55   35.65    1.26   0.000   0.200   0.000    0.00
   9.300    8.82   37.32    0.99   0.000   0.200   0.000    0.00
   9.350    7.88   40.53    0.97   0.000   0.200   0.000    0.00
   9.400    8.12   44.22    0.67   0.000   0.200   0.000    0.00
   9.450    7.72   42.11    0.83   0.000   0.200   0.000    0.00
   9.500    8.09   41.63    1.18   0.000   0.200   0.000    0.00
   9.550    8.07   41.32    0.42   0.000   0.200   0.000    0.00
   9.600    7.86   41.88    0.40   0.000   0.200   0.000    0.00
   9.650    8.15   41.12    0.63   0.000   0.200   0.000    0.00
   9.700    7.94   39.81   -0.02   0.000   0.200   0.000    0.00
   9.750    8.38   41.06   -0.19   0.000   0.200   0.000    0.00
   9.800    8.77   42.28    0.22   0.000   0.200   0.000    0.00
   9.850    8.92   38.59    0.10   0.000   0.200   0.000    0.00
   9.900    8.45   36.16    0.20   0.000   0.200   0.000    0.00
   9.950    8.82   34.42    0.44   0.000   0.200   0.000    0.00
  10.000    9.23   32.61    0.52   0.000   0.200   0.000    0.00
  10.050    8.63   38.08    0.68   0.000   0.200   0.000    0.00
  10.100    8.33   34.46    0.48   0.000   0.200   0.000    0.00
  10.150    8.79   36.36    0.53   0.000   0.200   0.000    0.00
  10.200    8.04   32.65    0.66   0.000   0.200   0.000    0.00
  10.250    7.74   33.54    1.12   0.000   0.200   0.000    0.00
  10.300    7.69   34.30    0.74   0.000   0.200   0.000    0.00
  10.350    7.44   35.30    0.83   0.000   0.200   0.000    0.00
  10.400    7.38   33.72    0.88   0.000   0.200   0.000    0.00
  10.450    7.62   34.21    0.49   0.000   0.200   0.000    0.00
  10.500    7.22   28.27    0.43   0.000   0.200   0.000    0.00
  10.550    7.38   26.34    0.27   0.000   0.200   0.000    0.00
  10.600    7.25   24.27   -0.05   0.000   0.200   0.000    0.00
  10.650    7.24   23.07    0.55   0.000   0.200   0.000    0.00
  10.700    7.28   13.27    0.82   0.000   0.200   0.000    0.00
  10.750    7.04   15.82    0.97   0.000   0.200   0.000    0.00
  10.800    7.07   17.00    0.69   0.000   0.200   0.000    0.00
  10.850    6.60   15.00    0.89   0.000   0.200   0.000    0.00
  10.900    6.58   16.99    1.17   0.000   0.200   0.000    0.00
  10.950    6.78   19.42    1.06   0.000   0.200   0.000    0.00
  11.000    6.91   20.61    0.58   0.000   0.200   0.000    0.00
  11.050    6.42   19.66    1.13   0.000   0.200   0.000    0.00
  11.100    6.25   17.42    1.59   0.000   0.200   0.000    0.00
  11.150    6.08   18.80    1.37   0.000   0.200   0.000    0.00
  11.200    6.49   16.11    1.45   0.000   0.200   0.000    0.00
  11.250    6.12   15.48    1.72   0.000   0.200   0.000    0.00
  11.300    5.92   18.95    1.69   0.000   0.200   0.000    0.00
  11.350    6.04   24.87    1.34   0.000   0.200   0.000    0.00
  11.400    6.22   27.34    1.19   0.000   0.200   0.000    0.00
  11.450    6.86   25.87    1.08   0.000   0.200   0.000    0.00
  11.500    7.40   26.46    0.46   0.000   0.200   0.000    0.00
  11.550    7.43   26.72    0.91   0.000   0.200   0.000    0.00
  11.600    7.51   28.08    1.83   0.000   0.200   0.000    0.00
  11.650    7.47   31.99    1.57   0.000   0.200   0.000    0.00
  11.700    7.30   33.51    1.21   0.000   0.200   0.000    0.00
  11.750    7.38   28.84    1.70   0.000   0.200   0.000    0.00
  11.800    7.57   28.01    1.54   0.000   0.200   0.000    0.00
  11.850    7.95   27.07    1.82   0.000   0.200   0.000    0.00
  11.900    8.09   27.72    1.74   0.000   0.200   0.000    0.00
  11.950    7.87   30.34    1.62   0.000   0.200   0.000    0.00
  12.000    7.16   26.31    1.79   0.000   0.200   0.000    0.00
  12.050    6.78   26.03    1.07   0.000   0.200   0.000    0.00
  12.100    6.41   30.08    0.96   0.000   0.200   0.000    0.00
  12.150    5.87   31.25    0.11   0.000   0.200   0.000    0.00
  12.200    5.69   26.74   -0.06   0.000   0.200   0.000    0.00
  12.250    6.12   27.85    0.60   0.000   0.200   0.000    0.00
  12.300    6.16   28.75    0.62   0.000   0.200   0.000    0.00
  12.350    6.25   31.02    0.31   0.000   0.200   0.000    0.00
  12.400    6.48   34.00    0.43   0.000   0.200   0.000    0.00
  12.450    5.61   34.26    0.37   0.000   0.200   0.000    0.00
  12.500    5.44   34.06   -0.02   0.000   0.200   0.000    0.00
  12.550    5.07   34.61    0.45   0.000   0.200   0.000    0.00
  12.600    5.07   30.41    0.98   0.000   0.200   0.000    0.00
  12.650    4.44   29.72    1.01   0.000   0.200   0.000    0.00
  12.700    4.81   23.93    0.75   0.000   0.200   0.000    0.00
  12.750    4.74   20.05    0.62   0.000   0.200   0.000    0.00
  12.800    5.56   24.15    0.12   0.000   0.200   0.000    0.00
  12.850    5.47   20.46    0.06   0.000   0.200   0.000    0.00
  12.900    5.63   21.81    0.37   0.000   0.200   0.000    0.00
  12.950    5.06   20.92    0.62   0.000   0.200   0.000    0.00
  13.000    5.47   19.99    0.76   0.000   0.200   0.000    0.00
  13.050    4.77   20.98    1.37   0.000   0.200   0.000    0.00
  13.100    4.76   21.39    0.87   0.000   0.200   0.000    0.00
  13.150    4.34   17.42    0.80   0.000   0.200   0.000    0.00
  13.200    4.62   20.50    1.21   0.000   0.200   0.000    0.00
  13.250    5.40   20.32    0.99   0.000   0.200   0.000    0.00
  13.300    5.44   22.19    0.37   0.000   0.200   0.000    0.00
  13.350    4.83   19.46    0.08   0.000   0.200   0.000    0.00
  13.400    4.89   18.57    0.01   0.000   0.200   0.000    0.00
  13.450    4.54   14.76   -0.03   0.000   0.200   0.000    0.00
  13.500    4.81   17.08    0.19   0.000   0.200   0.000    0.00
  13.550    4.35   19.12    0.39   0.000   0.200   0.000    0.00
  13.600    4.64   13.45    0.30   0.000   0.200   0.000    0.00
  13.650    5.66   14.77    0.97   0.000   0.200   0.000    0.00
  13.700    5.19   18.18    0.90   0.000   0.200   0.000    0.00
  13.750    5.16   19.41    1.02   0.000   0.200   0.000    0.00
  13.800    4.98   15.07    1.41   0.000   0.200   0.000    0.00
  13.850    5.22   16.82    1.13   0.000   0.200   0.000    0.00
  13.900    5.39   17.29    1.00   0.000   0.200   0.000    0.00
  13.950    5.71   18.00    1.22   0.000   0.200   0.000    0.00
  14.000    6.30   17.29    1.10   0.000   0.200   0.000    0.00
  14.050    6.55   11.36   -0.06   0.000   0.200   0.000    0.00
  14.100    6.59   10.34   -0.07   0.000   0.200   0.000    0.00
  14.150    6.87    7.31    0.78   0.000   0.200   0.000    0.00
  14.200    6.75    5.34    0.83   0.000   0.200   0.000    0.00
  14.250    6.28    4.61    0.93   0.000   0.200   0.000    0.00
  14.300    6.79   -0.61    0.72   0.000   0.200   0.000    0.00
  14.350    6.79   -4.01    0.60   0.000   0.200   0.000    0.00
  14.400    6.80   -4.47    1.16   0.000   0.200   0.000    0.00
  14.450    6.70   -7.72    0.34   0.000   0.200   0.000    0.00
  14.500    5.91   -9.51    0.42   0.000   0.200   0.000    0.00
  14.550    5.78  -13.57   -0.02   0.000   0.200   0.000    0.00
  14.600    5.48  -11.76   -0.26   0.000   0.200   0.000    0.00
  14.650    5.28   -5.58   -0.55   0.000   0.200   0.000    0.00
  14.700    5.13    0.19    0.09   0.000   0.200   0.000    0.00
  14.750    5.33   -4.15    0.35   0.000   0.200   0.000    0.00
  14.800    4.60  -16.50    0.49   0.000   0.200   0.000    0.00
  14.850    4.69  -13.10    0.83   0.000   0.200   0.000    0.00
  14.900    4.99  -14.60    0.75   0.000   0.200   0.000    0.00
  14.950    5.35  -10.93    0.23   0.000   0.200   0.000    0.00
  15.000    5.46  -18.40   -0.41   0.000   0.200   0.000    0.00
  15.050    5.76  -14.53   -0.09   0.000   0.200   0.000    0.00
  15.100    5.94  -11.80    0.60   0.000   0.200   0.000    0.00
  15.150    6.60  -13.25    0.66   0.000   0.200   0.000    0.00
  15.200    6.19  -12.36    0.23   0.000   0.200   0.000    0.00
  15.250    4.88  -15.39    0.28   0.000   0.200   0.000    0.00
  15.300    5.04  -14.93    0.63   0.000   0.200   0.000    0.00
  15.350    5.24  -10.90    0.32   0.000   0.200   0.000    0.00
  15.400    5.75   -9.95    1.16   0.000   0.200   0.000    0.00
  15.450    5.37   -9.31    0.95   0.000   0.200   0.000    0.00
  15.500    5.87   -7.64    1.24   0.000   0.200   0.000    0.00
  15.550    5.90   -3.89    1.55   0.000   0.200   0.000    0.00
  15.600    6.63   -3.78    1.18   0.000   0.200   0.000    0.00
  15.650    6.94   -6.22    1.26   0.000   0.200   0.000    0.00
  15.700    6.84   -3.38    1.58   0.000   0.200   0.000    0.00
  15.750    6.73   -7.20    1.35   0.000   0.200   0.000    0.00
  15.800    7.03  -12.65    1.54   0.000   0.200   0.000    0.00
  15.850    6.97   -8.90    0.96   0.000   0.200   0.000    0.00
  15.900    7.20  -12.23    0.55   0.000   0.200   0.000    0.00
  15.950    7.45  -12.77    1.02   0.000   0.200   0.000    0.00
  16.000    7.80  -10.59    1.93   0.000   0.200   0.000    0.00
  16.050    8.11  -11.70    1.49   0.000   0.200   0.000    0.00
  16.100    7.58  -12.41    1.16   0.000   0.200   0.000    0.00
  16.150    7.78   -8.62    1.81   0.000   0.200   0.000    0.00
  16.200    7.59   -3.68    2.06   0.000   0.200   0.000    0.00
  16.250    7.33   -4.64    2.57   0.000   0.200   0.000    0.00
  16.300    6.97   -5.18    2.35   0.000   0.200   0.000    0.00
  16.350    7.52   -5.29    3.04   0.000   0.200   0.000    0.00
  16.400    7.47   -8.04    2.80   0.000   0.200   0.000    0.00
  16.450    8.18   -6.08    2.20   0.000   0.200   0.000    0.00
  16.500    8.96   -7.45    2.00   0.000   0.200   0.000    0.00
  16.550    8.07   -6.45    1.83   0.000   0.200   0.000    0.00
  16.600    7.97   -7.29    1.69   0.000   0.200   0.000    0.00
  16.650    7.84   -4.09    1.54   0.000   0.200   0.000    0.00
  16.700    7.78   -1.14    1.23   0.000   0.200   0.000    0.00
  16.750    7.51   -1.08    1.52   0.000   0.200   0.000    0.00
  16.800    7.23   -3.99    2.08   0.000   0.200   0.000    0.00
  16.850    7.43   -3.94    1.88   0.000   0.200   0.000    0.00
  16.900    7.52   -4.79    1.14   0.000   0.200   0.000    0.00
  16.950    7.46   -2.05    0.68   0.000   0.200   0.000    0.00
  17.000    7.80    5.39    0.84   0.000   0.200   0.000    0.00
  17.050    7.59    3.12    1.02   0.000   0.200   0.000    0.00
  17.100    7.59    2.40    1.20   0.000   0.200   0.000    0.00
  17.150    7.53    2.26    0.72   0.000   0.200   0.000    0.00
  17.200    7.38    4.94    0.14   0.000   0.200   0.000    0.00
  17.250    7.27    5.59   -0.53   0.000   0.200   0.000    0.00
  17.300    7.44    3.26   -0.13   0.000   0.200   0.000    0.00
  17.350    7.04    4.05   -0.70   0.000   0.200   0.000    0.00
  17.400    6.98   11.97   -0.79   0.000   0.200   0.000    0.00
  17.450    7.60   12.84    0.28   0.000   0.200   0.000    0.00
  17.500    8.04   15.51    0.36   0.000   0.200   0.000    0.00
  17.550    8.19   15.03    0.12   0.000   0.200   0.000    0.00
  17.600    7.89   13.48   -0.08   0.000   0.200   0.000    0.00
  17.650    7.52   11.86    0.18   0.000   0.200   0.000    0.00
  17.700    7.89   11.06    0.24   0.000   0.200   0.000    0.00
  17.750    7.70   14.46    0.47   0.000   0.200   0.000    0.00
  17.800    7.55   15.70    0.84   0.000   0.200   0.000    0.00
  17.850    7.46   12.53    1.23   0.000   0.200   0.000    0.00
  17.900    7.68   13.15    1.58   0.000   0.200   0.000    0.00
  17.950    7.75   16.84    0.93   0.000   0.200   0.000    0.00
  18.000    7.92   13.42    1.05   0.000   0.200   0.000    0.00
  18.050    8.55   12.77    1.01   0.000   0.200   0.000    0.00
  18.100    8.74   10.99    0.93   0.000   0.200   0.000    0.00
  18.150    8.78   14.02    1.27   0.000   0.200   0.000    0.00
  18.200    8.92   17.18    1.85   0.000   0.200   0.000    0.00
  18.250    8.77   16.10    1.84   0.000   0.200   0.000    0.00
  18.300    8.49   14.84    1.38   0.000   0.200   0.000    0.00
  18.350    8.42   10.48    0.86   0.000   0.200   0.000    0.00
  18.400    8.33    8.53    1.14   0.000   0.200   0.000    0.00
  18.450    8.17    6.75    0.99   0.000   0.200   0.000    0.00
  18.500    8.23    9.82    0.27   0.000   0.200   0.000    0.00
  18.550    8.10   11.41    0.17   0.000   0.200   0.000    0.00
  18.600    8.55   13.29    0.31   0.000   0.200   0.000    0.00
  18.650    8.77   12.71    0.02   0.000   0.200   0.000    0.00
  18.700    8.49   12.59   -0.51   0.000   0.200   0.000    0.00
  18.750    8.24   12.47   -1.11   0.000   0.200   0.000    0.00
  18.800    7.99   13.48   -1.51   0.000   0.200   0.000    0.00
  18.850    8.34   13.12   -0.79   0.000   0.200   0.000    0.00
  18.900    8.78    9.53   -1.10   0.000   0.200   0.000    0.00
  18.950    8.86    9.31   -1.31   0.000   0.200   0.000    0.00
  19.000    8.79   12.05   -1.31   0.000   0.200   0.000    0.00
  19.050    8.92    9.84   -1.61   0.000   0.200   0.000    0.00
  19.100    9.10    9.84   -1.31   0.000   0.200   0.000    0.00
  19.150    9.09   12.65   -1.31   0.000   0.200   0.000    0.00
  19.200    9.41   14.08   -1.06   0.000   0.200   0.000    0.00
  19.250    9.48   11.99   -0.67   0.000   0.200   0.000    0.00
  19.300    9.36   13.57   -0.54   0.000   0.200   0.000    0.00
  19.350    9.16   15.20   -0.35   0.000   0.200   0.000    0.00
  19.400    9.49   13.54   -0.75   0.000   0.200   0.000    0.00
  19.450    9.89   14.14   -0.72   0.000   0.200   0.000    0.00
  19.500    9.55   11.74   -0.53   0.000   0.200   0.000    0.00
  19.550    9.91    8.31   -0.35   0.000   0.200   0.000    0.00
  19.600    9.64    4.97   -0.41   0.000   0.200   0.000    0.00
  19.650    9.64    2.97   -1.08   0.000   0.200   0.000    0.00
  19.700    9.47    6.20   -1.22   0.000   0.200   0.000    0.00
  19.750    8.94    7.61   -1.03   0.000   0.200   0.000    0.00
  19.800    9.11   12.88   -0.44   0.000   0.200   0.000    0.00
  19.850    8.98   11.22   -1.19   0.000   0.200   0.000    0.00
  19.900    9.20   11.33   -1.70   0.000   0.200   0.000    0.00
  19.950    9.20   10.76   -1.16   0.000   0.200   0.000    0.00
  20.000    8.98   11.19   -0.83   0.000   0.200   0.000    0.00
  20.050    8.72   15.06   -0.39   0.000   0.200   0.000    0.00
  20.100    9.73   14.37    0.15   0.000   0.200   0.000    0.00
  20.150    9.93   14.49   -1.05   0.000   0.200   0.000    0.00
  20.200   10.01   16.61   -0.94   0.000   0.200   0.000    0.00
  20.250   10.04   14.75   -0.97   0.000   0.200   0.000    0.00
  20.300   10.21   15.78   -1.52   0.000   0.200   0.000    0.00
  20.350   10.74   19.08   -1.58   0.000   0.200   0.000    0.00
  20.400   10.00   16.42   -1.89   0.000   0.200   0.000    0.00
  20.450   10.06   17.29   -1.61   0.000   0.200   0.000    0.00
  20.500    9.73   16.83   -1.89   0.000   0.200   0.000    0.00
  20.550    9.19   14.45   -1.71   0.000   0.200   0.000    0.00
  20.600    9.22   15.07   -1.94   0.000   0.200   0.000    0.00
  20.650    9.45   19.56   -2.17   0.000   0.200   0.000    0.00
  20.700    9.68   20.76   -2.43   0.000   0.200   0.000    0.00
  20.750    9.71   14.71   -2.80   0.000   0.200   0.000    0.00
  20.800    9.43   14.69   -2.35   0.000   0.200   0.000    0.00
  20.850    9.41   16.34   -2.54   0.000   0.200   0.000    0.00
  20.900   10.18   16.36   -2.59   0.000   0.200   0.000    0.00
  20.950    9.82   19.21   -2.75   0.000   0.200   0.000    0.00
  21.000    9.73   21.95   -2.43   0.000   0.200   0.000    0.00
  21.050    8.93   20.62   -2.57   0.000   0.200   0.000    0.00
  21.100    8.96   24.38   -2.52   0.000   0.200   0.000    0.00
  21.150    9.45   26.68   -2.33   0.000   0.200   0.000    0.00
  21.200    9.41   26.48   -2.46   0.000   0.200   0.000    0.00
  21.250    9.25   26.26   -1.21   0.000   0.200   0.000    0.00
  21.300    9.37   25.87   -1.33   0.000   0.200   0.000    0.00
  21.350    9.29   21.61   -1.12   0.000   0.200   0.000    0.00
  21.400    9.92   23.46   -1.79   0.000   0.200   0.000    0.00
  21.450    9.64   18.83   -1.79   0.000   0.200   0.000    0.00
  21.500    9.15   15.08   -1.64   0.000   0.200   0.000    0.00
  21.550    9.19   16.44   -1.57   0.000   0.200   0.000    0.00
  21.600    9.68   14.28   -1.18   0.000   0.200   0.000    0.00
  21.650    9.64   11.49   -1.21   0.000   0.200   0.000    0.00
  21.700    9.37   13.01   -1.85   0.000   0.200   0.000    0.00
  21.750    9.66   17.76   -2.16   0.000   0.200   0.000    0.00
  21.800   10.04   15.32   -1.80   0.000   0.200   0.000    0.00
  21.850    9.84   17.90   -1.75   0.000   0.200   0.000    0.00
  21.900   10.34   10.49   -0.87   0.000   0.200   0.000    0.00
  21.950    9.92   11.42   -1.14   0.000   0.200   0.000    0.00
  22.000    9.95   15.45   -0.90   0.000   0.200   0.000    0.00
  22.050    9.81   18.08   -1.17   0.000   0.200   0.000    0.00
  22.100    9.93   15.74   -1.18   0.000   0.200   0.000    0.00
  22.150    9.88   17.19   -1.81   0.000   0.200   0.000    0.00
  22.200    9.99   24.39   -1.49   0.000   0.200   0.000    0.00
  22.250    9.69   21.40   -1.48   0.000   0.200   0.000    0.00
  22.300    9.56   19.95   -1.66   0.000   0.200   0.000    0.00
  22.350    9.49   19.40   -0.87   0.000   0.200   0.000    0.00