! This hub-height wind-speed file was generated by TurbSim (v1.06.00, 21-Sep-2012) on 16-Jun-2018 at 18:33:40.
!
! The requested statistics for this data were:
!    Mean Total Wind Speed =   21.000 m/s
!    Turbulence Intensity  =   14.233%
!
!   Time  HorSpd  WndDir  VerSpd  HorShr  VerShr  LnVShr  GstSpd
!  (sec)   (m/s)   (deg)   (m/s)     (-)     (-)     (-)   (m/s)
   0.000   24.13    2.07   -1.26   0.000   0.200   0.000    0.00
   0.050   24.75    1.03   -0.89   0.000   0.200   0.000    0.00
   0.100   24.49    4.40   -1.30   0.000   0.200   0.000    0.00
   0.150   25.38    5.55   -1.50   0.000   0.200   0.000    0.00
   0.200   25.67    4.99   -1.11   0.000   0.200   0.000    0.00
   0.250   25.75    3.26   -1.98   0.000   0.200   0.000    0.00
   0.300   25.69    1.38   -1.82   0.000   0.200   0.000    0.00
   0.350   25.67    1.44   -2.62   0.000   0.200   0.000    0.00
   0.400   25.54    2.90   -1.41   0.000   0.200   0.000    0.00
   0.450   25.56    4.63   -0.79   0.000   0.200   0.000    0.00
   0.500   25.70    4.54   -0.98   0.000   0.200   0.000    0.00
   0.550   25.06    6.14   -1.40   0.000   0.200   0.000    0.00
   0.600   23.97    5.60   -1.85   0.000   0.200   0.000    0.00
   0.650   23.81    4.89   -1.28   0.000   0.200   0.000    0.00
   0.700   23.21    5.20   -2.19   0.000   0.200   0.000    0.00
   0.750   22.46    5.84   -2.37   0.000   0.200   0.000    0.00
   0.800   21.87   10.75   -2.76   0.000   0.200   0.000    0.00
   0.850   21.32   10.45   -2.66   0.000   0.200   0.000    0.00
   0.900   21.63    9.93   -2.08   0.000   0.200   0.000    0.00
   0.950   21.34   10.41   -1.37   0.000   0.200   0.000    0.00
   1.000   23.14   10.15   -2.17   0.000   0.200   0.000    0.00
   1.050   24.05    7.40   -2.43   0.000   0.200   0.000    0.00
   1.100   23.85    6.07   -2.25   0.000   0.200   0.000    0.00
   1.150   24.47    5.56   -0.52   0.000   0.200   0.000    0.00
   1.200   24.91    3.38   -1.35   0.000   0.200   0.000    0.00
   1.250   24.15    3.66   -2.26   0.000   0.200   0.000    0.00
   1.300   23.76    5.70   -2.10   0.000   0.200   0.000    0.00
   1.350   23.40    5.54   -2.35   0.000   0.200   0.000    0.00
   1.400   23.66    6.64   -2.10   0.000   0.200   0.000    0.00
   1.450   24.12    8.80   -0.50   0.000   0.200   0.000    0.00
   1.500   24.41    7.92    1.63   0.000   0.200   0.000    0.00
   1.550   24.46    7.82    1.00   0.000   0.200   0.000    0.00
   1.600   24.73    9.50   -0.07   0.000   0.200   0.000    0.00
   1.650   24.61    8.52    0.53   0.000   0.200   0.000    0.00
   1.700   23.71    9.41    0.37   0.000   0.200   0.000    0.00
   1.750   24.02    7.94    0.98   0.000   0.200   0.000    0.00
   1.800   24.00    7.84    1.88   0.000   0.200   0.000    0.00
   1.850   24.94   12.70    1.47   0.000   0.200   0.000    0.00
   1.900   23.73   10.35   -0.25   0.000   0.200   0.000    0.00
   1.950   23.21    8.70    0.36   0.000   0.200   0.000    0.00
   2.000   24.06   10.02   -0.55   0.000   0.200   0.000    0.00
   2.050   24.66    9.09   -1.44   0.000   0.200   0.000    0.00
   2.100   25.34    9.39   -1.21   0.000   0.200   0.000    0.00
   2.150   24.15    9.00    0.90   0.000   0.200   0.000    0.00
   2.200   23.56    9.25    2.11   0.000   0.200   0.000    0.00
   2.250   23.03    6.40    1.77   0.000   0.200   0.000    0.00
   2.300   23.15    4.77    0.97   0.000   0.200   0.000    0.00
   2.350   23.53    4.96   -0.45   0.000   0.200   0.000    0.00
   2.400   24.23    7.06    0.47   0.000   0.200   0.000    0.00
   2.450   24.68    6.97   -0.53   0.000   0.200   0.000    0.00
   2.500   25.09    5.53   -0.62   0.000   0.200   0.000    0.00
   2.550   25.02    5.95   -0.25   0.000   0.200   0.000    0.00
   2.600   24.46    5.93   -2.00   0.000   0.200   0.000    0.00
   2.650   23.54    5.82   -1.85   0.000   0.200   0.000    0.00
   2.700   24.16    4.94   -0.81   0.000   0.200   0.000    0.00
   2.750   25.09    4.42   -0.44   0.000   0.200   0.000    0.00
   2.800   24.91    3.39   -0.35   0.000   0.200   0.000    0.00
   2.850   24.95    0.31   -0.79   0.000   0.200   0.000    0.00
   2.900   24.16    1.19   -0.28   0.000   0.200   0.000    0.00
   2.950   24.12    0.48   -0.75   0.000   0.200   0.000    0.00
   3.000   24.39   -1.32   -0.64   0.000   0.200   0.000    0.00
   3.050   23.84   -0.29   -1.17   0.000   0.200   0.000    0.00
   3.100   24.97   -2.88   -1.23   0.000   0.200   0.000    0.00
   3.150   24.72   -1.59   -1.93   0.000   0.200   0.000    0.00
   3.200   24.97   -2.79   -1.04   0.000   0.200   0.000    0.00
   3.250   24.51   -1.43   -1.63   0.000   0.200   0.000    0.00
   3.300   23.82   -2.90   -0.64   0.000   0.200   0.000    0.00
   3.350   23.07   -1.95   -0.80   0.000   0.200   0.000    0.00
   3.400   23.64   -2.99   -0.93   0.000   0.200   0.000    0.00
   3.450   23.85   -3.62   -1.25   0.000   0.200   0.000    0.00
   3.500   23.24   -4.41   -1.56   0.000   0.200   0.000    0.00
   3.550   22.67   -2.80   -1.13   0.000   0.200   0.000    0.00
   3.600   22.58   -3.73   -0.80   0.000   0.200   0.000    0.00
   3.650   22.65   -2.98   -0.27   0.000   0.200   0.000    0.00
   3.700   22.34   -3.49   -0.73   0.000   0.200   0.000    0.00
   3.750   22.77   -2.72   -1.43   0.000   0.200   0.000    0.00
   3.800   23.45   -0.85   -1.86   0.000   0.200   0.000    0.00
   3.850   23.61    0.45   -2.15   0.000   0.200   0.000    0.00
   3.900   22.87   -1.31   -2.83   0.000   0.200   0.000    0.00
   3.950   22.32   -0.44   -3.23   0.000   0.200   0.000    0.00
   4.000   23.14   -0.65   -3.13   0.000   0.200   0.000    0.00
   4.050   24.03   -0.18   -2.34   0.000   0.200   0.000    0.00
   4.100   24.43    1.46   -2.85   0.000   0.200   0.000    0.00
   4.150   23.74    5.63   -1.14   0.000   0.200   0.000    0.00
   4.200   23.87    7.86   -0.32   0.000   0.200   0.000    0.00
   4.250   24.88    8.07   -0.73   0.000   0.200   0.000    0.00
   4.300   23.73    9.74   -0.65   0.000   0.200   0.000    0.00
   4.350   23.72   10.15   -0.51   0.000   0.200   0.000    0.00
   4.400   23.09   10.69    0.72   0.000   0.200   0.000    0.00
   4.450   22.89    9.40    1.30   0.000   0.200   0.000    0.00
   4.500   22.65    7.73    0.17   0.000   0.200   0.000    0.00
   4.550   22.25    8.15    0.39   0.000   0.200   0.000    0.00
   4.600   21.72    9.73    0.76   0.000   0.200   0.000    0.00
   4.650   21.03    7.17    0.76   0.000   0.200   0.000    0.00
   4.700   21.33    6.31   -0.38   0.000   0.200   0.000    0.00
   4.750   21.93    4.84   -0.10   0.000   0.200   0.000    0.00
   4.800   22.04    5.49    0.41   0.000   0.200   0.000    0.00
   4.850   22.48    6.96    1.17   0.000   0.200   0.000    0.00
   4.900   21.59    6.50    0.48   0.000   0.200   0.000    0.00
   4.950   20.91    8.06    1.35   0.000   0.200   0.000    0.00
   5.000   21.43    7.00    0.73   0.000   0.200   0.000    0.00
   5.050   20.97    5.65    0.57   0.000   0.200   0.000    0.00
   5.100   21.17    4.71    0.46   0.000   0.200   0.000    0.00
   5.150   21.01    4.38    0.00   0.000   0.200   0.000    0.00
   5.200   21.18    2.50    0.33   0.000   0.200   0.000    0.00
   5.250   21.74    3.55    1.15   0.000   0.200   0.000    0.00
   5.300   22.87    2.95    1.06   0.000   0.200   0.000    0.00
   5.350   22.72    2.31    0.79   0.000   0.200   0.000    0.00
   5.400   23.92    2.75    1.12   0.000   0.200   0.000    0.00
   5.450   23.75    3.82    1.16   0.000   0.200   0.000    0.00
   5.500   24.05   -1.15   -0.21   0.000   0.200   0.000    0.00
   5.550   24.21   -2.01   -0.56   0.000   0.200   0.000    0.00
   5.600   23.46    1.44   -0.23   0.000   0.200   0.000    0.00
   5.650   24.09    1.57    0.45   0.000   0.200   0.000    0.00
   5.700   23.91    0.88   -0.83   0.000   0.200   0.000    0.00
   5.750   22.81   -1.86   -1.97   0.000   0.200   0.000    0.00
   5.800   23.19   -2.56   -1.17   0.000   0.200   0.000    0.00
   5.850   23.55   -0.97   -1.25   0.000   0.200   0.000    0.00
   5.900   22.81   -2.04   -2.02   0.000   0.200   0.000    0.00
   5.950   23.52   -2.94   -1.30   0.000   0.200   0.000    0.00
   6.000   23.95   -2.23   -0.85   0.000   0.200   0.000    0.00
   6.050   23.82   -1.12   -1.35   0.000   0.200   0.000    0.00
   6.100   24.46   -1.04   -0.86   0.000   0.200   0.000    0.00
   6.150   24.80   -3.56   -0.31   0.000   0.200   0.000    0.00
   6.200   26.12   -4.36   -1.36   0.000   0.200   0.000    0.00
   6.250   25.03   -4.72   -2.08   0.000   0.200   0.000    0.00
   6.300   25.14   -5.71   -1.51   0.000   0.200   0.000    0.00
   6.350   26.38   -5.10   -2.06   0.000   0.200   0.000    0.00
   6.400   26.71   -4.47   -1.94   0.000   0.200   0.000    0.00
   6.450   25.97   -3.47   -2.42   0.000   0.200   0.000    0.00
   6.500   25.63   -5.55   -2.38   0.000   0.200   0.000    0.00
   6.550   25.32   -9.05   -2.94   0.000   0.200   0.000    0.00
   6.600   26.33   -8.57   -2.67   0.000   0.200   0.000    0.00
   6.650   26.60   -8.07   -4.04   0.000   0.200   0.000    0.00
   6.700   26.90   -7.39   -4.60   0.000   0.200   0.000    0.00
   6.750   27.39   -8.62   -3.79   0.000   0.200   0.000    0.00
   6.800   27.44   -6.12   -3.92   0.000   0.200   0.000    0.00
   6.850   27.84   -5.25   -4.41   0.000   0.200   0.000    0.00
   6.900   27.38   -4.02   -4.37   0.000   0.200   0.000    0.00
   6.950   27.57   -6.71   -4.23   0.000   0.200   0.000    0.00
   7.000   28.34   -7.85   -3.64   0.000   0.200   0.000    0.00
   7.050   28.65   -6.18   -1.94   0.000   0.200   0.000    0.00
   7.100   27.82   -4.82   -2.06   0.000   0.200   0.000    0.00
   7.150   28.83   -5.48   -1.62   0.000   0.200   0.000    0.00
   7.200   28.90   -5.71   -1.97   0.000   0.200   0.000    0.00
   7.250   30.03   -4.05   -2.18   0.000   0.200   0.000    0.00
   7.300   29.44   -2.75   -1.88   0.000   0.200   0.000    0.00
   7.350   29.83   -3.87   -3.79   0.000   0.200   0.000    0.00
   7.400   29.72   -2.53   -4.03   0.000   0.200   0.000    0.00
   7.450   29.46    0.64   -4.15   0.000   0.200   0.000    0.00
   7.500   30.12   -0.23   -3.04   0.000   0.200   0.000    0.00
   7.550   29.49   -1.30   -3.33   0.000   0.200   0.000    0.00
   7.600   29.25    0.24   -3.50   0.000   0.200   0.000    0.00
   7.650   28.39   -0.32   -3.31   0.000   0.200   0.000    0.00
   7.700   29.36   -1.19   -2.68   0.000   0.200   0.000    0.00
   7.750   29.13   -2.52   -2.49   0.000   0.200   0.000    0.00
   7.800   29.54   -2.83   -1.78   0.000   0.200   0.000    0.00
   7.850   30.50   -4.93   -2.19   0.000   0.200   0.000    0.00
   7.900   30.55   -2.56   -3.19   0.000   0.200   0.000    0.00
   7.950   31.19   -0.88   -3.20   0.000   0.200   0.000    0.00
   8.000   30.86   -2.57   -2.38   0.000   0.200   0.000    0.00
   8.050   30.96   -2.74   -1.88   0.000   0.200   0.000    0.00
   8.100   30.37   -2.90   -1.04   0.000   0.200   0.000    0.00
   8.150   30.84   -3.28   -1.08   0.000   0.200   0.000    0.00
   8.200   30.20   -3.81   -1.00   0.000   0.200   0.000    0.00
   8.250   30.56   -4.15   -2.06   0.000   0.200   0.000    0.00
   8.300   30.80   -3.14   -1.94   0.000   0.200   0.000    0.00
   8.350   29.68   -3.65   -1.55   0.000   0.200   0.000    0.00
   8.400   29.09   -1.94   -1.82   0.000   0.200   0.000    0.00
   8.450   30.03   -2.21   -2.21   0.000   0.200   0.000    0.00
   8.500   28.97   -4.63   -2.20   0.000   0.200   0.000    0.00
   8.550   28.02   -5.03   -2.39   0.000   0.200   0.000    0.00
   8.600   27.85   -4.59   -1.79   0.000   0.200   0.000    0.00
   8.650   28.47   -5.53   -1.57   0.000   0.200   0.000    0.00
   8.700   28.59   -4.01   -1.44   0.000   0.200   0.000    0.00
   8.750   28.54   -2.41   -1.17   0.000   0.200   0.000    0.00
   8.800   28.71   -3.37   -2.53   0.000   0.200   0.000    0.00
   8.850   28.55   -1.72   -3.21   0.000   0.200   0.000    0.00
   8.900   27.94   -1.75   -2.59   0.000   0.200   0.000    0.00
   8.950   26.95   -0.99   -3.14   0.000   0.200   0.000    0.00
   9.000   27.18   -1.60   -3.56   0.000   0.200   0.000    0.00
   9.050   27.01   -2.78   -3.28   0.000   0.200   0.000    0.00
   9.100   26.67   -2.51   -3.35   0.000   0.200   0.000    0.00
   9.150   27.02   -3.31   -2.47   0.000   0.200   0.000    0.00
   9.200   26.66   -2.63   -2.10   0.000   0.200   0.000    0.00
   9.250   26.30   -3.46   -1.43   0.000   0.200   0.000    0.00
   9.300   26.15   -3.57   -1.12   0.000   0.200   0.000    0.00
   9.350   25.22   -2.98   -0.79   0.000   0.200   0.000    0.00
   9.400   25.79   -1.52   -1.03   0.000   0.200   0.000    0.00
   9.450   25.95   -1.12   -0.91   0.000   0.200   0.000    0.00
   9.500   25.96   -3.91   -1.47   0.000   0.200   0.000    0.00
   9.550   26.04   -3.94   -1.27   0.000   0.200   0.000    0.00
   9.600   25.40   -4.40   -0.03   0.000   0.200   0.000    0.00
   9.650   25.72   -2.93    1.03   0.000   0.200   0.000    0.00
   9.700   25.18   -1.62    0.38   0.000   0.200   0.000    0.00
   9.750   25.34   -2.90    0.87   0.000   0.200   0.000    0.00
   9.800   25.54   -2.17    1.46   0.000   0.200   0.000    0.00
   9.850   26.40   -1.13    1.65   0.000   0.200   0.000    0.00
   9.900   26.53   -2.68    1.72   0.000   0.200   0.000    0.00
   9.950   25.73   -4.51    2.15   0.000   0.200   0.000    0.00
  10.000   25.14   -3.08    2.77   0.000   0.200   0.000    0.00
  10.050   25.31   -4.41    2.66   0.000   0.200   0.000    0.00
  10.100   25.19   -5.61    3.22   0.000   0.200   0.000    0.00
  10.150   26.58   -2.55    2.46   0.000   0.200   0.000    0.00
  10.200   26.98   -5.35    2.53   0.000   0.200   0.000    0.00
  10.250   27.03   -3.24    1.92   0.000   0.200   0.000    0.00
  10.300   26.71   -4.37    0.84   0.000   0.200   0.000    0.00
  10.350   26.66   -5.03    0.38   0.000   0.200   0.000    0.00
  10.400   26.64   -3.24    0.55   0.000   0.200   0.000    0.00
  10.450   26.75   -4.03    0.55   0.000   0.200   0.000    0.00
  10.500   26.57   -5.56   -0.42   0.000   0.200   0.000    0.00
  10.550   26.02   -6.53   -0.50   0.000   0.200   0.000    0.00
  10.600   26.55   -6.20   -1.55   0.000   0.200   0.000    0.00
  10.650   26.52   -7.33   -0.90   0.000   0.200   0.000    0.00
  10.700   26.05   -6.24   -0.73   0.000   0.200   0.000    0.00
  10.750   25.94   -6.19   -1.56   0.000   0.200   0.000    0.00
  10.800   25.89   -3.61   -1.08   0.000   0.200   0.000    0.00
  10.850   24.64   -3.41   -0.44   0.000   0.200   0.000    0.00
  10.900   24.57   -3.75   -0.07   0.000   0.200   0.000    0.00
  10.950   25.06   -3.63   -0.51   0.000   0.200   0.000    0.00
  11.000   25.02   -3.38   -0.12   0.000   0.200   0.000    0.00
  11.050   24.13   -3.52   -1.06   0.000   0.200   0.000    0.00
  11.100   24.53   -3.56   -1.06   0.000   0.200   0.000    0.00
  11.150   23.62   -2.40   -0.55   0.000   0.200   0.000    0.00
  11.200   23.13   -3.61    0.13   0.000   0.200   0.000    0.00
  11.250   23.67   -4.65    1.02   0.000   0.200   0.000    0.00
  11.300   23.63   -6.91    1.73   0.000   0.200   0.000    0.00
  11.350   24.25   -5.86    2.73   0.000   0.200   0.000    0.00
  11.400   24.07   -6.24    1.72   0.000   0.200   0.000    0.00
  11.450   24.03   -5.69    1.78   0.000   0.200   0.000    0.00
  11.500   24.16   -4.60    2.10   0.000   0.200   0.000    0.00
  11.550   24.46   -4.11    1.49   0.000   0.200   0.000    0.00
  11.600   23.78   -2.81    2.06   0.000   0.200   0.000    0.00
  11.650   23.70   -2.16    1.44   0.000   0.200   0.000    0.00
  11.700   24.15   -1.23    0.89   0.000   0.200   0.000    0.00
  11.750   24.58   -1.52    1.19   0.000   0.200   0.000    0.00
  11.800   25.50   -1.65    2.09   0.000   0.200   0.000    0.00
  11.850   24.54   -0.48    1.64   0.000   0.200   0.000    0.00
  11.900   24.16   -0.10    1.57   0.000   0.200   0.000    0.00
  11.950   24.93   -1.41    1.43   0.000   0.200   0.000    0.00
  12.000   24.12   -2.05    1.22   0.000   0.200   0.000    0.00
  12.050   24.85   -2.08    0.22   0.000   0.200   0.000    0.00
  12.100   24.92   -5.14    0.62   0.000   0.200   0.000    0.00
  12.150   25.63   -3.06   -0.22   0.000   0.200   0.000    0.00
  12.200   25.05   -2.94    0.10   0.000   0.200   0.000    0.00
  12.250   25.05    0.89    0.39   0.000   0.200   0.000    0.00
  12.300   24.97   -2.02   -0.35   0.000   0.200   0.000    0.00
  12.350   24.95   -2.16    0.65   0.000   0.200   0.000    0.00
  12.400   24.97   -3.02    0.60   0.000   0.200   0.000    0.00
  12.450   25.07   -3.47    1.39   0.000   0.200   0.000    0.00
  12.500   25.04   -4.38    0.95   0.000   0.200   0.000    0.00
  12.550   25.80   -2.75    1.39   0.000   0.200   0.000    0.00
  12.600   26.07   -3.40    0.88   0.000   0.200   0.000    0.00
  12.650   26.40   -3.06    0.87   0.000   0.200   0.000    0.00
  12.700   26.25   -3.07    0.72   0.000   0.200   0.000    0.00
  12.750   26.28   -4.02    1.63   0.000   0.200   0.000    0.00
  12.800   25.17   -3.58    1.22   0.000   0.200   0.000    0.00
  12.850   25.51   -2.67    1.34   0.000   0.200   0.000    0.00
  12.900   25.19   -2.42    0.91   0.000   0.200   0.000    0.00
  12.950   25.40   -0.83   -0.06   0.000   0.200   0.000    0.00
  13.000   25.06    0.72    1.24   0.000   0.200   0.000    0.00
  13.050   25.80   -1.95    0.78   0.000   0.200   0.000    0.00
  13.100   26.53   -4.69    0.37   0.000   0.200   0.000    0.00
  13.150   26.78   -3.13   -0.22   0.000   0.200   0.000    0.00
  13.200   26.58   -3.99   -0.02   0.000   0.200   0.000    0.00
  13.250   27.33   -4.78   -0.30   0.000   0.200   0.000    0.00
  13.300   27.57   -4.47    0.06   0.000   0.200   0.000    0.00
  13.350   27.41   -4.37    0.18   0.000   0.200   0.000    0.00
  13.400   27.40   -3.20   -1.68   0.000   0.200   0.000    0.00
  13.450   27.66   -3.66   -2.24   0.000   0.200   0.000    0.00
  13.500   26.65   -2.60   -1.74   0.000   0.200   0.000    0.00
  13.550   25.89   -4.26   -0.80   0.000   0.200   0.000    0.00
  13.600   26.21   -3.78   -0.02   0.000   0.200   0.000    0.00
  13.650   25.90   -6.27   -0.30   0.000   0.200   0.000    0.00
  13.700   25.83   -4.58   -0.69   0.000   0.200   0.000    0.00
  13.750   26.22   -4.81   -0.12   0.000   0.200   0.000    0.00
  13.800   26.55   -2.72    0.83   0.000   0.200   0.000    0.00
  13.850   26.82   -4.36   -0.53   0.000   0.200   0.000    0.00
  13.900   26.08   -7.02    0.83   0.000   0.200   0.000    0.00
  13.950   25.91   -6.10    1.79   0.000   0.200   0.000    0.00
  14.000   25.62   -8.40    0.85   0.000   0.200   0.000    0.00
  14.050   25.13   -7.00    0.15   0.000   0.200   0.000    0.00
  14.100   24.34   -4.38    0.07   0.000   0.200   0.000    0.00
  14.150   24.39   -4.95    0.04   0.000   0.200   0.000    0.00
  14.200   24.86   -1.25   -0.15   0.000   0.200   0.000    0.00
  14.250   24.76   -0.19    0.48   0.000   0.200   0.000    0.00
  14.300   25.93   -0.11    0.17   0.000   0.200   0.000    0.00
  14.350   25.98   -2.13    0.17   0.000   0.200   0.000    0.00
  14.400   25.51   -0.24   -0.52   0.000   0.200   0.000    0.00
  14.450   25.82   -2.63   -0.93   0.000   0.200   0.000    0.00
  14.500   26.84   -3.38   -0.37   0.000   0.200   0.000    0.00
  14.550   26.54   -3.21   -0.59   0.000   0.200   0.000    0.00
  14.600   25.89   -4.07   -0.22   0.000   0.200   0.000    0.00
  14.650   26.13   -4.56   -0.71   0.000   0.200   0.000    0.00
  14.700   26.60   -3.73   -0.64   0.000   0.200   0.000    0.00
  14.750   27.10   -4.70   -0.58   0.000   0.200   0.000    0.00
  14.800   26.42   -5.78   -0.89   0.000   0.200   0.000    0.00
  14.850   26.10   -3.78    0.49   0.000   0.200   0.000    0.00
  14.900   25.64   -3.88    1.11   0.000   0.200   0.000    0.00
  14.950   26.22   -3.82    0.12   0.000   0.200   0.000    0.00
  15.000   26.20   -4.00   -0.13   0.000   0.200   0.000    0.00
  15.050   26.26   -5.27    0.25   0.000   0.200   0.000    0.00
  15.100   26.96   -5.10   -1.14   0.000   0.200   0.000    0.00
  15.150   27.17   -1.56   -0.45   0.000   0.200   0.000    0.00
  15.200   27.40   -2.75   -0.01   0.000   0.200   0.000    0.00
  15.250   27.32   -2.48   -0.73   0.000   0.200   0.000    0.00
  15.300   27.43   -4.53   -0.86   0.000   0.200   0.000    0.00
  15.350   27.53   -5.40   -0.83   0.000   0.200   0.000    0.00
  15.400   28.31   -4.34    0.07   0.000   0.200   0.000    0.00
  15.450   27.93   -6.01   -0.03   0.000   0.200   0.000    0.00
  15.500   26.94   -4.48   -1.26   0.000   0.200   0.000    0.00
  15.550   28.24   -5.62   -0.96   0.000   0.200   0.000    0.00
  15.600   28.78   -4.41    0.13   0.000   0.200   0.000    0.00
  15.650   28.28   -5.12   -0.31   0.000   0.200   0.000    0.00
  15.700   28.21   -4.25   -0.79   0.000   0.200   0.000    0.00
  15.750   27.57   -7.51   -0.29   0.000   0.200   0.000    0.00
  15.800   27.20   -6.22   -0.55   0.000   0.200   0.000    0.00
  15.850   27.22   -5.19   -1.34   0.000   0.200   0.000    0.00
  15.900   27.38   -6.35   -0.90   0.000   0.200   0.000    0.00
  15.950   27.55   -8.86   -1.10   0.000   0.200   0.000    0.00
  16.000   27.36   -8.59   -0.76   0.000   0.200   0.000    0.00
  16.050   27.07   -7.69   -0.55   0.000   0.200   0.000    0.00
  16.100   25.74   -5.61   -0.02   0.000   0.200   0.000    0.00
  16.150   25.93   -4.79   -0.55   0.000   0.200   0.000    0.00
  16.200   26.10   -4.58   -0.57   0.000   0.200   0.000    0.00
  16.250   27.08   -3.16   -1.73   0.000   0.200   0.000    0.00
  16.300   27.62   -3.71   -1.10   0.000   0.200   0.000    0.00
  16.350   26.72   -4.13   -1.17   0.000   0.200   0.000    0.00
  16.400   26.33   -5.33   -0.46   0.000   0.200   0.000    0.00
  16.450   26.36   -4.90    0.17   0.000   0.200   0.000    0.00
  16.500   26.52   -2.13   -0.12   0.000   0.200   0.000    0.00
  16.550   26.10   -2.17    1.31   0.000   0.200   0.000    0.00
  16.600   27.27   -4.61    1.34   0.000   0.200   0.000    0.00
  16.650   27.41   -6.39    0.69   0.000   0.200   0.000    0.00
  16.700   27.80   -6.03    1.25   0.000   0.200   0.000    0.00
  16.750   27.48   -5.36    1.24   0.000   0.200   0.000    0.00
  16.800   27.89   -3.70    1.64   0.000   0.200   0.000    0.00
  16.850   27.68   -3.25    0.52   0.000   0.200   0.000    0.00
  16.900   27.87   -4.44   -0.18   0.000   0.200   0.000    0.00
  16.950   28.08   -5.25   -0.17   0.000   0.200   0.000    0.00
  17.000   27.36   -5.35    1.09   0.000   0.200   0.000    0.00
  17.050   26.94   -4.09    1.09   0.000   0.200   0.000    0.00
  17.100   26.97   -4.56    0.41   0.000   0.200   0.000    0.00
  17.150   27.05   -4.81    1.26   0.000   0.200   0.000    0.00
  17.200   27.55   -4.81    1.03   0.000   0.200   0.000    0.00
  17.250   26.90   -3.57    1.47   0.000   0.200   0.000    0.00
  17.300   27.37   -2.59    1.04   0.000   0.200   0.000    0.00
  17.350   27.66   -2.83    1.17   0.000   0.200   0.000    0.00
  17.400   28.37   -2.71    0.83   0.000   0.200   0.000    0.00
  17.450   28.58   -2.46    0.19   0.000   0.200   0.000    0.00
  17.500   27.14   -3.00    0.11   0.000   0.200   0.000    0.00
  17.550   27.37   -2.15   -0.31   0.000   0.200   0.000    0.00
  17.600   27.29   -1.36    0.02   0.000   0.200   0.000    0.00
  17.650   27.17   -1.18   -0.65   0.000   0.200   0.000    0.00
  17.700   26.36   -1.91   -2.20   0.000   0.200   0.000    0.00
  17.750   26.37   -2.01   -1.93   0.000   0.200   0.000    0.00
  17.800   26.52   -1.99   -1.48   0.000   0.200   0.000    0.00
  17.850   26.45   -4.85   -0.29   0.000   0.200   0.000    0.00
  17.900   26.55   -3.40    0.58   0.000   0.200   0.000    0.00
  17.950   27.74   -2.79    1.51   0.000   0.200   0.000    0.00
  18.000   26.89   -3.33    1.49   0.000   0.200   0.000    0.00
  18.050   26.20   -6.34    1.98   0.000   0.200   0.000    0.00
  18.100   26.25   -7.24    1.92   0.000   0.200   0.000    0.00
  18.150   25.82   -6.81    2.45   0.000   0.200   0.000    0.00
  18.200   26.43   -6.39    1.87   0.000   0.200   0.000    0.00
  18.250   28.16   -6.67    1.13   0.000   0.200   0.000    0.00
  18.300   28.20   -6.84    2.04   0.000   0.200   0.000    0.00
  18.350   28.53   -7.82    2.82   0.000   0.200   0.000    0.00
  18.400   28.31  -10.93    2.86   0.000   0.200   0.000    0.00
  18.450   28.36   -8.81    3.64   0.000   0.200   0.000    0.00
  18.500   29.18   -7.77    2.77   0.000   0.200   0.000    0.00
  18.550   28.18   -8.51    2.34   0.000   0.200   0.000    0.00
  18.600   29.03   -7.72    2.88   0.000   0.200   0.000    0.00
  18.650   29.12   -7.63    3.61   0.000   0.200   0.000    0.00
  18.700   28.77   -8.61    1.93   0.000   0.200   0.000    0.00
  18.750   29.19   -6.84    1.61   0.000   0.200   0.000    0.00
  18.800   28.46   -7.47    1.64   0.000   0.200   0.000    0.00
  18.850   27.93   -5.97    0.85   0.000   0.200   0.000    0.00
  18.900   27.00   -8.27    1.96   0.000   0.200   0.000    0.00
  18.950   26.51   -6.33    1.94   0.000   0.200   0.000    0.00
  19.000   26.53   -3.36    1.64   0.000   0.200   0.000    0.00
  19.050   27.19   -5.15    0.98   0.000   0.200   0.000    0.00
  19.100   27.26   -3.06    0.22   0.000   0.200   0.000    0.00
  19.150   27.59   -3.22    0.41   0.000   0.200   0.000    0.00
  19.200   28.23   -3.20    0.93   0.000   0.200   0.000    0.00
  19.250   28.83   -2.80    0.97   0.000   0.200   0.000    0.00
  19.300   27.77   -3.72    0.38   0.000   0.200   0.000    0.00
  19.350   27.76   -4.80   -0.67   0.000   0.200   0.000    0.00
  19.400   27.52   -3.70    0.70   0.000   0.200   0.000    0.00
  19.450   27.76   -4.53    1.02   0.000   0.200   0.000    0.00
  19.500   28.43   -4.13    1.45   0.000   0.200   0.000    0.00
  19.550   28.25   -2.86    2.21   0.000   0.200   0.000    0.00
  19.600   29.19   -3.44    1.72   0.000   0.200   0.000    0.00
  19.650   29.16   -3.97    1.71   0.000   0.200   0.000    0.00
  19.700   28.79   -1.28    1.84   0.000   0.200   0.000    0.00
  19.750   28.84   -1.59    1.93   0.000   0.200   0.000    0.00
  19.800   30.13   -3.21    1.15   0.000   0.200   0.000    0.00
  19.850   29.61   -3.09    1.31   0.000   0.200   0.000    0.00
  19.900   29.75   -4.18    0.29   0.000   0.200   0.000    0.00
  19.950   29.57   -3.80   -0.07   0.000   0.200   0.000    0.00
  20.000   30.03   -5.00    0.28   0.000   0.200   0.000    0.00
  20.050   29.28   -5.01   -0.39   0.000   0.200   0.000    0.00
  20.100   29.39   -3.41   -0.07   0.000   0.200   0.000    0.00
  20.150   28.91   -3.94    0.64   0.000   0.200   0.000    0.00
  20.200   28.84   -3.48    1.51   0.000   0.200   0.000    0.00
  20.250   29.15   -4.88   -0.05   0.000   0.200   0.000    0.00
  20.300   30.05   -3.83    0.56   0.000   0.200   0.000    0.00
  20.350   30.54   -4.49    1.24   0.000   0.200   0.000    0.00
  20.400   30.60   -4.47    1.26   0.000   0.200   0.000    0.00
  20.450   29.98   -2.71    2.51   0.000   0.200   0.000    0.00
  20.500   30.34   -2.36    2.19   0.000   0.200   0.000    0.00
  20.550   31.12   -4.62    1.75   0.000   0.200   0.000    0.00
  20.600   31.52   -5.84    2.31   0.000   0.200   0.000    0.00
  20.650   31.11   -6.47    2.08   0.000   0.200   0.000    0.00
  20.700   31.24   -5.57    1.80   0.000   0.200   0.000    0.00
  20.750   31.43   -4.38    2.49   0.000   0.200   0.000    0.00
  20.800   31.41   -5.36    2.13   0.000   0.200   0.000    0.00
  20.850   30.91   -4.79    1.30   0.000   0.200   0.000    0.00
  20.900   31.31   -4.49    1.06   0.000   0.200   0.000    0.00
  20.950   31.74   -5.06    0.58   0.000   0.200   0.000    0.00
  21.000   30.58   -3.65    0.63   0.000   0.200   0.000    0.00
  21.050   29.59   -3.78   -0.25   0.000   0.200   0.000    0.00
  21.100   29.16   -4.22   -0.11   0.000   0.200   0.000    0.00
  21.150   29.60   -5.46   -1.46   0.000   0.200   0.000    0.00
  21.200   29.13   -6.26   -0.97   0.000   0.200   0.000    0.00
  21.250   29.48   -6.55   -0.77   0.000   0.200   0.000    0.00
  21.300   30.12   -7.86   -0.61   0.000   0.200   0.000    0.00
  21.350   30.52   -8.45   -0.10   0.000   0.200   0.000    0.00
  21.400   30.06   -7.12    0.02   0.000   0.200   0.000    0.00
  21.450   29.94   -9.17    0.30   0.000   0.200   0.000    0.00
  21.500   29.36  -10.61    0.90   0.000   0.200   0.000    0.00
  21.550   29.17   -8.50    0.51   0.000   0.200   0.000    0.00
  21.600   29.87   -8.83    0.42   0.000   0.200   0.000    0.00
  21.650   30.66   -9.69    0.90   0.000   0.200   0.000    0.00
  21.700   30.68   -9.22    0.20   0.000   0.200   0.000    0.00
  21.750   29.93   -8.40   -0.05   0.000   0.200   0.000    0.00
  21.800   30.00   -8.19    0.25   0.000   0.200   0.000    0.00
  21.850   30.90   -7.22    0.55   0.000   0.200   0.000    0.00
  21.900   32.43   -6.92   -0.65   0.000   0.200   0.000    0.00
  21.950   31.70   -7.34   -0.90   0.000   0.200   0.000    0.00
  22.000   30.93   -7.03   -1.37   0.000   0.200   0.000    0.00
  22.050   29.97   -7.06   -1.45   0.000   0.200   0.000    0.00
  22.100   29.59   -7.06   -0.76   0.000   0.200   0.000    0.00
  22.150   28.85   -9.04   -0.64   0.000   0.200   0.000    0.00
  22.200   29.40   -8.32   -0.53   0.000   0.200   0.000    0.00
  22.250   28.23   -6.76   -1.36   0.000   0.200   0.000    0.00
  22.300   27.85   -7.86   -0.87   0.000   0.200   0.000    0.00
  22.350   28.04   -7.83   -0.28   0.000   0.200   0.000    0.00