! This hub-height wind-speed file was generated by TurbSim (v1.06.00, 21-Sep-2012) on 16-Jun-2018 at 18:31:45.
!
! The requested statistics for this data were:
!    Mean Total Wind Speed =   13.000 m/s
!    Turbulence Intensity  =   16.531%
!
!   Time  HorSpd  WndDir  VerSpd  HorShr  VerShr  LnVShr  GstSpd
!  (sec)   (m/s)   (deg)   (m/s)     (-)     (-)     (-)   (m/s)
   0.000   16.40    8.35    1.36   0.000   0.200   0.000    0.00
   0.050   15.99    8.36    1.18   0.000   0.200   0.000    0.00
   0.100   15.88    9.42    0.86   0.000   0.200   0.000    0.00
   0.150   16.13    7.91    0.89   0.000   0.200   0.000    0.00
   0.200   15.89    4.55    0.56   0.000   0.200   0.000    0.00
   0.250   15.90    5.61    0.23   0.000   0.200   0.000    0.00
   0.300   15.51    7.31    0.14   0.000   0.200   0.000    0.00
   0.350   15.00    6.80    0.28   0.000   0.200   0.000    0.00
   0.400   15.02    9.12    0.44   0.000   0.200   0.000    0.00
   0.450   15.23    8.06    0.66   0.000   0.200   0.000    0.00
   0.500   15.34    8.20    0.28   0.000   0.200   0.000    0.00
   0.550   15.93    7.72   -0.15   0.000   0.200   0.000    0.00
   0.600   15.90    6.79    0.13   0.000   0.200   0.000    0.00
   0.650   15.92    6.26    0.33   0.000   0.200   0.000    0.00
   0.700   15.64    5.88   -0.15   0.000   0.200   0.000    0.00
   0.750   16.19    5.77    0.52   0.000   0.200   0.000    0.00
   0.800   15.61    7.27    1.01   0.000   0.200   0.000    0.00
   0.850   15.96    8.04    0.94   0.000   0.200   0.000    0.00
   0.900   15.71    6.87    0.45   0.000   0.200   0.000    0.00
   0.950   15.78    7.33    0.35   0.000   0.200   0.000    0.00
   1.000   15.71    6.26    0.55   0.000   0.200   0.000    0.00
   1.050   15.34    6.67   -0.01   0.000   0.200   0.000    0.00
   1.100   15.30    5.52    0.21   0.000   0.200   0.000    0.00
   1.150   15.80    5.69    0.64   0.000   0.200   0.000    0.00
   1.200   16.10    5.47    0.89   0.000   0.200   0.000    0.00
   1.250   16.04    4.39    0.40   0.000   0.200   0.000    0.00
   1.300   16.26    6.75    0.59   0.000   0.200   0.000    0.00
   1.350   15.97    6.73   -0.23   0.000   0.200   0.000    0.00
   1.400   16.01    8.12    0.49   0.000   0.200   0.000    0.00
   1.450   16.53    8.49    0.65   0.000   0.200   0.000    0.00
   1.500   16.16    8.72    0.46   0.000   0.200   0.000    0.00
   1.550   16.30    9.39    1.10   0.000   0.200   0.000    0.00
   1.600   16.46   10.03    1.07   0.000   0.200   0.000    0.00
   1.650   16.58    9.78    1.48   0.000   0.200   0.000    0.00
   1.700   16.28    9.73    1.73   0.000   0.200   0.000    0.00
   1.750   16.04    8.80    2.01   0.000   0.200   0.000    0.00
   1.800   16.19    8.42    1.94   0.000   0.200   0.000    0.00
   1.850   16.04    7.51    1.59   0.000   0.200   0.000    0.00
   1.900   15.86    7.42    1.86   0.000   0.200   0.000    0.00
   1.950   15.77    7.13    1.59   0.000   0.200   0.000    0.00
   2.000   15.93    5.54    1.99   0.000   0.200   0.000    0.00
   2.050   16.53    6.79    2.21   0.000   0.200   0.000    0.00
   2.100   17.29    6.44    1.70   0.000   0.200   0.000    0.00
   2.150   17.55    7.22    1.29   0.000   0.200   0.000    0.00
   2.200   17.70    7.74    0.77   0.000   0.200   0.000    0.00
   2.250   17.17    8.83    0.88   0.000   0.200   0.000    0.00
   2.300   17.35    9.10    0.76   0.000   0.200   0.000    0.00
   2.350   16.59    7.05    0.40   0.000   0.200   0.000    0.00
   2.400   16.43    5.83   -0.13   0.000   0.200   0.000    0.00
   2.450   16.78    4.30    0.04   0.000   0.200   0.000    0.00
   2.500   17.20    2.90    0.44   0.000   0.200   0.000    0.00
   2.550   17.29    3.07    1.09   0.000   0.200   0.000    0.00
   2.600   17.28    4.37    0.95   0.000   0.200   0.000    0.00
   2.650   16.60    4.40    0.66   0.000   0.200   0.000    0.00
   2.700   16.38    6.01    0.17   0.000   0.200   0.000    0.00
   2.750   16.78    5.91    0.09   0.000   0.200   0.000    0.00
   2.800   15.96    4.44   -0.04   0.000   0.200   0.000    0.00
   2.850   15.59    1.44   -0.35   0.000   0.200   0.000    0.00
   2.900   15.46    2.60   -1.21   0.000   0.200   0.000    0.00
   2.950   14.89    1.72   -0.32   0.000   0.200   0.000    0.00
   3.000   15.09    4.38    0.18   0.000   0.200   0.000    0.00
   3.050   15.44    1.64    0.15   0.000   0.200   0.000    0.00
   3.100   15.64    4.02   -0.02   0.000   0.200   0.000    0.00
   3.150   15.53    4.47   -0.81   0.000   0.200   0.000    0.00
   3.200   15.24    5.70   -0.33   0.000   0.200   0.000    0.00
   3.250   15.08    5.29   -0.58   0.000   0.200   0.000    0.00
   3.300   13.93    7.28   -0.86   0.000   0.200   0.000    0.00
   3.350   13.85    7.66   -0.70   0.000   0.200   0.000    0.00
   3.400   14.18    7.13   -0.46   0.000   0.200   0.000    0.00
   3.450   14.43    5.73    0.46   0.000   0.200   0.000    0.00
   3.500   14.47    8.52    0.30   0.000   0.200   0.000    0.00
   3.550   14.17    6.74   -0.20   0.000   0.200   0.000    0.00
   3.600   14.33    6.37   -0.50   0.000   0.200   0.000    0.00
   3.650   14.39    4.86    0.30   0.000   0.200   0.000    0.00
   3.700   14.19    3.99    0.32   0.000   0.200   0.000    0.00
   3.750   14.01    2.85    0.01   0.000   0.200   0.000    0.00
   3.800   14.29   -0.23    0.14   0.000   0.200   0.000    0.00
   3.850   14.23    2.27    0.13   0.000   0.200   0.000    0.00
   3.900   14.26    5.35    0.44   0.000   0.200   0.000    0.00
   3.950   13.84    6.69    0.77   0.000   0.200   0.000    0.00
   4.000   14.03    5.24    0.28   0.000   0.200   0.000    0.00
   4.050   13.92    4.20    0.54   0.000   0.200   0.000    0.00
   4.100   14.15    2.47    0.72   0.000   0.200   0.000    0.00
   4.150   14.73    2.77    0.27   0.000   0.200   0.000    0.00
   4.200   14.95    1.78    0.57   0.000   0.200   0.000    0.00
   4.250   15.22    2.69   -0.13   0.000   0.200   0.000    0.00
   4.300   15.17   -0.58    0.16   0.000   0.200   0.000    0.00
   4.350   15.36   -0.85    0.68   0.000   0.200   0.000    0.00
   4.400   15.18   -0.43    0.32   0.000   0.200   0.000    0.00
   4.450   15.22    3.86    0.57   0.000   0.200   0.000    0.00
   4.500   15.01    2.74   -0.07   0.000   0.200   0.000    0.00
   4.550   14.56    3.28   -0.49   0.000   0.200   0.000    0.00
   4.600   13.77    2.61    0.01   0.000   0.200   0.000    0.00
   4.650   13.87    0.93    0.13   0.000   0.200   0.000    0.00
   4.700   13.77    1.18    0.70   0.000   0.200   0.000    0.00
   4.750   13.52    4.19    0.90   0.000   0.200   0.000    0.00
   4.800   14.05    5.93    1.11   0.000   0.200   0.000    0.00
   4.850   14.51    6.84    1.06   0.000   0.200   0.000    0.00
   4.900   14.23    6.09    0.85   0.000   0.200   0.000    0.00
   4.950   14.16    5.83    0.65   0.000   0.200   0.000    0.00
   5.000   13.68    4.66    0.15   0.000   0.200   0.000    0.00
   5.050   13.48    6.86    0.51   0.000   0.200   0.000    0.00
   5.100   13.08    9.69    0.32   0.000   0.200   0.000    0.00
   5.150   13.18    7.21   -0.11   0.000   0.200   0.000    0.00
   5.200   13.54    8.99    0.25   0.000   0.200   0.000    0.00
   5.250   13.57    9.49   -0.40   0.000   0.200   0.000    0.00
   5.300   13.85    8.98   -0.52   0.000   0.200   0.000    0.00
   5.350   13.74    9.27   -0.56   0.000   0.200   0.000    0.00
   5.400   13.34    9.19   -0.51   0.000   0.200   0.000    0.00
   5.450   13.75    9.27   -0.61   0.000   0.200   0.000    0.00
   5.500   13.37    5.97   -0.35   0.000   0.200   0.000    0.00
   5.550   13.31    4.77   -0.56   0.000   0.200   0.000    0.00
   5.600   13.13    5.83   -0.21   0.000   0.200   0.000    0.00
   5.650   13.06    7.71   -0.02   0.000   0.200   0.000    0.00
   5.700   12.76    8.27   -0.40   0.000   0.200   0.000    0.00
   5.750   12.49    9.35   -0.60   0.000   0.200   0.000    0.00
   5.800   12.71   11.94   -0.83   0.000   0.200   0.000    0.00
   5.850   13.30    8.35   -0.71   0.000   0.200   0.000    0.00
   5.900   13.17    7.86   -0.68   0.000   0.200   0.000    0.00
   5.950   12.75    7.02   -0.32   0.000   0.200   0.000    0.00
   6.000   12.67    5.56   -0.59   0.000   0.200   0.000    0.00
   6.050   12.77    6.36   -0.84   0.000   0.200   0.000    0.00
   6.100   12.78    2.57   -0.45   0.000   0.200   0.000    0.00
   6.150   13.29    3.30   -0.57   0.000   0.200   0.000    0.00
   6.200   12.41    3.97   -0.80   0.000   0.200   0.000    0.00
   6.250   12.39    1.88   -0.13   0.000   0.200   0.000    0.00
   6.300   12.63    1.31    0.28   0.000   0.200   0.000    0.00
   6.350   12.22    1.53    0.25   0.000   0.200   0.000    0.00
   6.400   12.14    1.71    0.75   0.000   0.200   0.000    0.00
   6.450   12.42   -0.82    0.90   0.000   0.200   0.000    0.00
   6.500   12.24   -1.31    0.07   0.000   0.200   0.000    0.00
   6.550   12.51    1.57   -0.11   0.000   0.200   0.000    0.00
   6.600   12.14    1.55   -0.07   0.000   0.200   0.000    0.00
   6.650   12.09    0.79    0.00   0.000   0.200   0.000    0.00
   6.700   12.25    1.02   -0.07   0.000   0.200   0.000    0.00
   6.750   12.45    1.23    0.18   0.000   0.200   0.000    0.00
   6.800   12.28    4.15    0.17   0.000   0.200   0.000    0.00
   6.850   12.07    5.12    0.22   0.000   0.200   0.000    0.00
   6.900   12.04    5.72    0.79   0.000   0.200   0.000    0.00
   6.950   12.42    4.40    0.13   0.000   0.200   0.000    0.00
   7.000   12.10    5.34    0.58   0.000   0.200   0.000    0.00
   7.050   12.38    7.64    0.17   0.000   0.200   0.000    0.00
   7.100   12.38    5.88   -0.12   0.000   0.200   0.000    0.00
   7.150   12.36    8.13    0.35   0.000   0.200   0.000    0.00
   7.200   12.19   10.07    0.99   0.000   0.200   0.000    0.00
   7.250   11.96    9.52    1.02   0.000   0.200   0.000    0.00
   7.300   12.19   14.80    0.77   0.000   0.200   0.000    0.00
   7.350   12.21   12.27    1.20   0.000   0.200   0.000    0.00
   7.400   12.69    9.89    0.85   0.000   0.200   0.000    0.00
   7.450   12.78    9.66    0.61   0.000   0.200   0.000    0.00
   7.500   12.25    8.87    0.11   0.000   0.200   0.000    0.00
   7.550   12.22    9.68    0.54   0.000   0.200   0.000    0.00
   7.600   13.05    8.29    0.67   0.000   0.200   0.000    0.00
   7.650   13.14    9.11    0.85   0.000   0.200   0.000    0.00
   7.700   13.48    8.52   -0.27   0.000   0.200   0.000    0.00
   7.750   13.96    5.19   -0.53   0.000   0.200   0.000    0.00
   7.800   13.78    7.12   -0.18   0.000   0.200   0.000    0.00
   7.850   14.01    3.75   -0.33   0.000   0.200   0.000    0.00
   7.900   13.19    2.97   -0.25   0.000   0.200   0.000    0.00
   7.950   13.57    4.72   -0.19   0.000   0.200   0.000    0.00
   8.000   13.35    2.54    0.48   0.000   0.200   0.000    0.00
   8.050   13.33    0.90    0.51   0.000   0.200   0.000    0.00
   8.100   13.33    1.77   -0.03   0.000   0.200   0.000    0.00
   8.150   13.00    1.74    0.30   0.000   0.200   0.000    0.00
   8.200   13.44    3.86   -0.20   0.000   0.200   0.000    0.00
   8.250   13.59    3.23   -0.10   0.000   0.200   0.000    0.00
   8.300   13.98   -0.15    0.26   0.000   0.200   0.000    0.00
   8.350   14.38   -0.08    0.59   0.000   0.200   0.000    0.00
   8.400   14.13   -0.80    1.03   0.000   0.200   0.000    0.00
   8.450   14.07   -0.10    0.07   0.000   0.200   0.000    0.00
   8.500   13.71   -0.79   -0.15   0.000   0.200   0.000    0.00
   8.550   13.91    0.03    0.20   0.000   0.200   0.000    0.00
   8.600   13.71    1.70    0.13   0.000   0.200   0.000    0.00
   8.650   13.63   -0.06   -0.36   0.000   0.200   0.000    0.00
   8.700   13.48   -0.23    0.63   0.000   0.200   0.000    0.00
   8.750   13.75   -1.56    0.83   0.000   0.200   0.000    0.00
   8.800   13.80    0.17    1.04   0.000   0.200   0.000    0.00
   8.850   13.79    1.21    0.28   0.000   0.200   0.000    0.00
   8.900   13.97    1.70   -0.32   0.000   0.200   0.000    0.00
   8.950   13.94    1.76    0.25   0.000   0.200   0.000    0.00
   9.000   13.86    2.81    0.58   0.000   0.200   0.000    0.00
   9.050   14.24    5.14    0.59   0.000   0.200   0.000    0.00
   9.100   14.53    5.95    0.42   0.000   0.200   0.000    0.00
   9.150   14.39    7.13   -0.14   0.000   0.200   0.000    0.00
   9.200   14.04    5.11   -0.22   0.000   0.200   0.000    0.00
   9.250   13.89    4.50   -0.18   0.000   0.200   0.000    0.00
   9.300   14.01    4.38   -0.36   0.000   0.200   0.000    0.00
   9.350   14.18    3.87   -0.15   0.000   0.200   0.000    0.00
   9.400   14.06    6.18   -0.04   0.000   0.200   0.000    0.00
   9.450   13.88    5.18   -0.29   0.000   0.200   0.000    0.00
   9.500   13.78    7.44   -1.02   0.000   0.200   0.000    0.00
   9.550   13.43    7.30   -0.20   0.000   0.200   0.000    0.00
   9.600   13.36    3.42   -0.88   0.000   0.200   0.000    0.00
   9.650   13.31    2.67   -0.58   0.000   0.200   0.000    0.00
   9.700   13.67    6.55   -0.80   0.000   0.200   0.000    0.00
   9.750   13.59    7.69   -1.00   0.000   0.200   0.000    0.00
   9.800   13.59    3.49   -0.55   0.000   0.200   0.000    0.00
   9.850   14.25    6.36   -0.57   0.000   0.200   0.000    0.00
   9.900   14.16    7.72   -0.04   0.000   0.200   0.000    0.00
   9.950   14.28    6.58   -0.34   0.000   0.200   0.000    0.00
  10.000   14.74    7.22   -0.89   0.000   0.200   0.000    0.00
  10.050   15.10    6.82   -0.97   0.000   0.200   0.000    0.00
  10.100   15.36    7.04   -0.90   0.000   0.200   0.000    0.00
  10.150   15.65    6.05   -1.56   0.000   0.200   0.000    0.00
  10.200   14.84    5.70   -2.03   0.000   0.200   0.000    0.00
  10.250   14.51    8.70   -2.33   0.000   0.200   0.000    0.00
  10.300   14.52    9.78   -2.34   0.000   0.200   0.000    0.00
  10.350   13.98    9.47   -2.08   0.000   0.200   0.000    0.00
  10.400   14.47    9.99   -1.72   0.000   0.200   0.000    0.00
  10.450   14.35    9.07   -0.94   0.000   0.200   0.000    0.00
  10.500   15.46    7.46   -0.54   0.000   0.200   0.000    0.00
  10.550   14.84    9.17   -0.80   0.000   0.200   0.000    0.00
  10.600   14.39    9.33   -0.22   0.000   0.200   0.000    0.00
  10.650   14.49   11.27   -0.37   0.000   0.200   0.000    0.00
  10.700   14.45   13.02   -0.99   0.000   0.200   0.000    0.00
  10.750   14.49   11.92   -0.41   0.000   0.200   0.000    0.00
  10.800   14.45    9.22    0.12   0.000   0.200   0.000    0.00
  10.850   14.81    9.16   -0.48   0.000   0.200   0.000    0.00
  10.900   14.86    9.09   -1.00   0.000   0.200   0.000    0.00
  10.950   15.89    8.38   -0.30   0.000   0.200   0.000    0.00
  11.000   16.86    7.57    0.16   0.000   0.200   0.000    0.00
  11.050   16.82    9.13   -0.25   0.000   0.200   0.000    0.00
  11.100   16.52   11.61   -0.45   0.000   0.200   0.000    0.00
  11.150   16.45    8.51    0.03   0.000   0.200   0.000    0.00
  11.200   15.64    7.88   -0.39   0.000   0.200   0.000    0.00
  11.250   15.50    8.17   -0.15   0.000   0.200   0.000    0.00
  11.300   16.79    6.11   -0.65   0.000   0.200   0.000    0.00
  11.350   16.35    5.48   -0.49   0.000   0.200   0.000    0.00
  11.400   15.98    5.31   -0.01   0.000   0.200   0.000    0.00
  11.450   16.07    4.67    0.06   0.000   0.200   0.000    0.00
  11.500   15.74    5.19   -0.21   0.000   0.200   0.000    0.00
  11.550   15.73    3.92   -0.37   0.000   0.200   0.000    0.00
  11.600   15.65    0.83   -0.53   0.000   0.200   0.000    0.00
  11.650   15.01    0.85   -0.79   0.000   0.200   0.000    0.00
  11.700   14.76    3.94   -1.28   0.000   0.200   0.000    0.00
  11.750   14.38    3.27   -0.88   0.000   0.200   0.000    0.00
  11.800   14.65    4.82   -0.75   0.000   0.200   0.000    0.00
  11.850   14.85    5.70   -0.65   0.000   0.200   0.000    0.00
  11.900   14.98    3.73   -0.64   0.000   0.200   0.000    0.00
  11.950   14.61    4.97   -0.89   0.000   0.200   0.000    0.00
  12.000   13.80    6.07   -0.72   0.000   0.200   0.000    0.00
  12.050   14.38    7.71   -0.49   0.000   0.200   0.000    0.00
  12.100   14.27    8.91   -0.97   0.000   0.200   0.000    0.00
  12.150   14.74    7.70   -0.90   0.000   0.200   0.000    0.00
  12.200   14.70   10.93   -0.89   0.000   0.200   0.000    0.00
  12.250   14.45    9.41   -0.94   0.000   0.200   0.000    0.00
  12.300   15.23    7.23   -0.63   0.000   0.200   0.000    0.00
  12.350   15.74    7.02   -0.60   0.000   0.200   0.000    0.00
  12.400   16.12    6.43    0.13   0.000   0.200   0.000    0.00
  12.450   16.13    7.67   -0.21   0.000   0.200   0.000    0.00
  12.500   14.97    5.17    0.00   0.000   0.200   0.000    0.00
  12.550   15.70    6.35   -0.18   0.000   0.200   0.000    0.00
  12.600   15.77    8.24   -0.11   0.000   0.200   0.000    0.00
  12.650   15.97    9.32   -0.63   0.000   0.200   0.000    0.00
  12.700   15.99    8.62   -0.30   0.000   0.200   0.000    0.00
  12.750   15.51    8.06   -0.77   0.000   0.200   0.000    0.00
  12.800   15.61    8.91   -1.24   0.000   0.200   0.000    0.00
  12.850   15.28   10.09   -0.76   0.000   0.200   0.000    0.00
  12.900   15.17    9.57   -0.94   0.000   0.200   0.000    0.00
  12.950   15.07   10.18   -0.95   0.000   0.200   0.000    0.00
  13.000   14.97   10.80   -0.12   0.000   0.200   0.000    0.00
  13.050   14.69   11.94    0.46   0.000   0.200   0.000    0.00
  13.100   14.58    9.33    0.69   0.000   0.200   0.000    0.00
  13.150   14.84    7.03    0.94   0.000   0.200   0.000    0.00
  13.200   15.04    7.45    0.48   0.000   0.200   0.000    0.00
  13.250   15.35    6.60    1.32   0.000   0.200   0.000    0.00
  13.300   15.49    5.33    0.78   0.000   0.200   0.000    0.00
  13.350   15.26    5.95    0.86   0.000   0.200   0.000    0.00
  13.400   15.16    5.77    0.55   0.000   0.200   0.000    0.00
  13.450   15.31    5.30    0.76   0.000   0.200   0.000    0.00
  13.500   14.91    6.49    1.07   0.000   0.200   0.000    0.00
  13.550   14.98    4.05    1.44   0.000   0.200   0.000    0.00
  13.600   14.93    3.14    1.08   0.000   0.200   0.000    0.00
  13.650   14.26    1.29    1.03   0.000   0.200   0.000    0.00
  13.700   14.02    1.22    1.77   0.000   0.200   0.000    0.00
  13.750   14.19    1.08    1.10   0.000   0.200   0.000    0.00
  13.800   13.99    1.77    0.90   0.000   0.200   0.000    0.00
  13.850   13.37   -0.62    1.37   0.000   0.200   0.000    0.00
  13.900   12.99   -2.33    1.09   0.000   0.200   0.000    0.00
  13.950   13.07   -3.51    1.12   0.000   0.200   0.000    0.00
  14.000   13.72   -3.80    1.22   0.000   0.200   0.000    0.00
  14.050   12.92   -3.20    0.70   0.000   0.200   0.000    0.00
  14.100   13.27   -2.32    0.86   0.000   0.200   0.000    0.00
  14.150   13.07   -3.10    0.44   0.000   0.200   0.000    0.00
  14.200   12.49   -2.78    0.14   0.000   0.200   0.000    0.00
  14.250   12.60   -3.27    0.66   0.000   0.200   0.000    0.00
  14.300   12.37   -4.63    0.98   0.000   0.200   0.000    0.00
  14.350   12.22   -5.13    1.09   0.000   0.200   0.000    0.00
  14.400   12.01   -2.36    0.79   0.000   0.200   0.000    0.00
  14.450   12.27   -4.97    1.00   0.000   0.200   0.000    0.00
  14.500   12.58   -5.92    1.43   0.000   0.200   0.000    0.00
  14.550   12.26   -5.81    1.31   0.000   0.200   0.000    0.00
  14.600   11.83   -3.06    1.20   0.000   0.200   0.000    0.00
  14.650   12.27   -1.40    1.05   0.000   0.200   0.000    0.00
  14.700   12.29   -1.81    1.68   0.000   0.200   0.000    0.00
  14.750   12.40   -1.08    2.09   0.000   0.200   0.000    0.00
  14.800   12.62   -1.96    2.03   0.000   0.200   0.000    0.00
  14.850   12.22   -1.68    2.43   0.000   0.200   0.000    0.00
  14.900   11.49    3.08    2.01   0.000   0.200   0.000    0.00
  14.950   11.17    6.21    1.85   0.000   0.200   0.000    0.00
  15.000   11.03    6.97    2.22   0.000   0.200   0.000    0.00
  15.050   11.29    9.20    2.49   0.000   0.200   0.000    0.00
  15.100   11.47    9.51    2.55   0.000   0.200   0.000    0.00
  15.150   11.36    9.74    2.51   0.000   0.200   0.000    0.00
  15.200   11.27    8.46    2.49   0.000   0.200   0.000    0.00
  15.250   11.65    7.03    1.92   0.000   0.200   0.000    0.00
  15.300   11.72    9.20    1.78   0.000   0.200   0.000    0.00
  15.350   11.64    7.78    2.27   0.000   0.200   0.000    0.00
  15.400   12.91    8.88    2.13   0.000   0.200   0.000    0.00
  15.450   12.98    9.38    2.67   0.000   0.200   0.000    0.00
  15.500   12.51   10.65    2.55   0.000   0.200   0.000    0.00
  15.550   12.80    9.96    3.01   0.000   0.200   0.000    0.00
  15.600   12.22    5.45    3.05   0.000   0.200   0.000    0.00
  15.650   12.52    1.74    3.30   0.000   0.200   0.000    0.00
  15.700   12.14   -0.56    3.35   0.000   0.200   0.000    0.00
  15.750   11.97   -1.46    3.81   0.000   0.200   0.000    0.00
  15.800   11.75    1.00    4.15   0.000   0.200   0.000    0.00
  15.850   11.62   -1.27    4.52   0.000   0.200   0.000    0.00
  15.900   11.26    1.54    4.24   0.000   0.200   0.000    0.00
  15.950   11.52   -2.11    3.17   0.000   0.200   0.000    0.00
  16.000   11.42   -2.77    3.34   0.000   0.200   0.000    0.00
  16.050   12.38   -2.11    3.17   0.000   0.200   0.000    0.00
  16.100   12.60   -2.76    3.25   0.000   0.200   0.000    0.00
  16.150   13.39   -5.71    2.39   0.000   0.200   0.000    0.00
  16.200   14.06   -4.62    2.70   0.000   0.200   0.000    0.00
  16.250   14.44   -5.88    3.79   0.000   0.200   0.000    0.00
  16.300   14.30   -4.70    4.04   0.000   0.200   0.000    0.00
  16.350   14.93   -4.47    3.16   0.000   0.200   0.000    0.00
  16.400   14.98   -3.28    3.00   0.000   0.200   0.000    0.00
  16.450   14.85   -1.43    2.23   0.000   0.200   0.000    0.00
  16.500   14.75   -0.10    2.14   0.000   0.200   0.000    0.00
  16.550   14.14   -0.16    2.53   0.000   0.200   0.000    0.00
  16.600   14.17   -1.29    2.56   0.000   0.200   0.000    0.00
  16.650   15.10    0.12    2.57   0.000   0.200   0.000    0.00
  16.700   14.82    3.88    2.79   0.000   0.200   0.000    0.00
  16.750   15.52    6.04    2.99   0.000   0.200   0.000    0.00
  16.800   15.34    5.26    2.48   0.000   0.200   0.000    0.00
  16.850   14.24    6.07    2.12   0.000   0.200   0.000    0.00
  16.900   14.05    4.24    2.49   0.000   0.200   0.000    0.00
  16.950   13.86    2.60    2.99   0.000   0.200   0.000    0.00
  17.000   13.79    2.71    2.48   0.000   0.200   0.000    0.00
  17.050   14.35    2.13    2.10   0.000   0.200   0.000    0.00
  17.100   14.07    2.98    2.24   0.000   0.200   0.000    0.00
  17.150   13.68    2.25    2.22   0.000   0.200   0.000    0.00
  17.200   13.68   -0.44    2.26   0.000   0.200   0.000    0.00
  17.250   13.40   -1.65    2.40   0.000   0.200   0.000    0.00
  17.300   13.85   -2.69    2.10   0.000   0.200   0.000    0.00
  17.350   13.30   -3.53    2.00   0.000   0.200   0.000    0.00
  17.400   12.84   -2.49    1.39   0.000   0.200   0.000    0.00
  17.450   12.61   -0.55    1.97   0.000   0.200   0.000    0.00
  17.500   13.21   -0.27    1.78   0.000   0.200   0.000    0.00
  17.550   13.06    1.97    1.14   0.000   0.200   0.000    0.00
  17.600   12.74    0.61    1.95   0.000   0.200   0.000    0.00
  17.650   12.46    0.58    1.71   0.000   0.200   0.000    0.00
  17.700   12.38    0.87    1.35   0.000   0.200   0.000    0.00
  17.750   11.80    3.50    0.88   0.000   0.200   0.000    0.00
  17.800   11.75    3.28    0.92   0.000   0.200   0.000    0.00
  17.850   11.90    1.68    1.29   0.000   0.200   0.000    0.00
  17.900   11.77    0.09    1.29   0.000   0.200   0.000    0.00
  17.950   12.07    0.61    0.76   0.000   0.200   0.000    0.00
  18.000   12.65    0.62    0.46   0.000   0.200   0.000    0.00
  18.050   12.71    2.67    0.57   0.000   0.200   0.000    0.00
  18.100   12.47    0.14    0.88   0.000   0.200   0.000    0.00
  18.150   12.91   -1.02    0.66   0.000   0.200   0.000    0.00
  18.200   12.46    0.51    0.52   0.000   0.200   0.000    0.00
  18.250   12.94    1.25    0.23   0.000   0.200   0.000    0.00
  18.300   12.40    2.51    0.66   0.000   0.200   0.000    0.00
  18.350   12.14    0.85   -0.04   0.000   0.200   0.000    0.00
  18.400   12.43    3.78   -0.46   0.000   0.200   0.000    0.00
  18.450   11.88    2.72   -0.17   0.000   0.200   0.000    0.00
  18.500   11.68    5.13    0.41   0.000   0.200   0.000    0.00
  18.550   11.97    4.75    0.58   0.000   0.200   0.000    0.00
  18.600   12.19    3.12    1.08   0.000   0.200   0.000    0.00
  18.650   11.78    2.06    0.81   0.000   0.200   0.000    0.00
  18.700   11.79    0.74    0.80   0.000   0.200   0.000    0.00
  18.750   12.65    1.10   -0.15   0.000   0.200   0.000    0.00
  18.800   12.86    0.30   -0.56   0.000   0.200   0.000    0.00
  18.850   12.97    3.51   -0.09   0.000   0.200   0.000    0.00
  18.900   12.64    4.43    0.48   0.000   0.200   0.000    0.00
  18.950   12.32    4.51    0.87   0.000   0.200   0.000    0.00
  19.000   12.87    3.81    0.33   0.000   0.200   0.000    0.00
  19.050   12.48    2.21    0.50   0.000   0.200   0.000    0.00
  19.100   12.58    2.25    0.35   0.000   0.200   0.000    0.00
  19.150   12.19    2.56    0.39   0.000   0.200   0.000    0.00
  19.200   12.47    1.86    1.17   0.000   0.200   0.000    0.00
  19.250   12.56    2.89    0.76   0.000   0.200   0.000    0.00
  19.300   12.54   -0.22    0.73   0.000   0.200   0.000    0.00
  19.350   12.85   -0.95    0.74   0.000   0.200   0.000    0.00
  19.400   13.82    1.46   -0.21   0.000   0.200   0.000    0.00
  19.450   13.70   -2.37   -0.51   0.000   0.200   0.000    0.00
  19.500   13.28   -4.59   -0.41   0.000   0.200   0.000    0.00
  19.550   13.35   -4.61   -0.37   0.000   0.200   0.000    0.00
  19.600   13.27   -6.34    0.50   0.000   0.200   0.000    0.00
  19.650   13.00   -6.85    0.84   0.000   0.200   0.000    0.00
  19.700   12.52   -2.23    1.32   0.000   0.200   0.000    0.00
  19.750   12.87   -3.83    1.19   0.000   0.200   0.000    0.00
  19.800   12.71   -1.81    0.89   0.000   0.200   0.000    0.00
  19.850   12.34   -3.87    0.98   0.000   0.200   0.000    0.00
  19.900   12.55   -1.96   -0.12   0.000   0.200   0.000    0.00
  19.950   12.57   -2.16   -0.23   0.000   0.200   0.000    0.00
  20.000   12.20   -3.12   -0.04   0.000   0.200   0.000    0.00
  20.050   12.55   -3.13    0.16   0.000   0.200   0.000    0.00
  20.100   12.60   -4.65    0.79   0.000   0.200   0.000    0.00
  20.150   12.69   -4.65    0.83   0.000   0.200   0.000    0.00
  20.200   13.10   -5.58    0.92   0.000   0.200   0.000    0.00
  20.250   12.81   -6.44    1.66   0.000   0.200   0.000    0.00
  20.300   12.63   -3.57    0.88   0.000   0.200   0.000    0.00
  20.350   12.75   -1.84    0.91   0.000   0.200   0.000    0.00
  20.400   13.09   -2.97    1.53   0.000   0.200   0.000    0.00
  20.450   12.89   -6.11    1.13   0.000   0.200   0.000    0.00
  20.500   13.33   -6.22    1.13   0.000   0.200   0.000    0.00
  20.550   13.04   -7.14    1.88   0.000   0.200   0.000    0.00
  20.600   12.92   -5.34    2.71   0.000   0.200   0.000    0.00
  20.650   13.03   -7.17    2.60   0.000   0.200   0.000    0.00
  20.700   12.44   -8.13    2.49   0.000   0.200   0.000    0.00
  20.750   12.33   -8.66    2.33   0.000   0.200   0.000    0.00
  20.800   12.57   -6.70    2.18   0.000   0.200   0.000    0.00
  20.850   12.75   -5.47    2.07   0.000   0.200   0.000    0.00
  20.900   13.02   -7.91    2.02   0.000   0.200   0.000    0.00
  20.950   13.65   -6.75    2.91   0.000   0.200   0.000    0.00
  21.000   12.99   -4.68    3.21   0.000   0.200   0.000    0.00
  21.050   12.52   -2.07    3.21   0.000   0.200   0.000    0.00
  21.100   12.09   -1.63    2.93   0.000   0.200   0.000    0.00
  21.150   12.16   -0.12    3.26   0.000   0.200   0.000    0.00
  21.200   12.32   -2.07    3.15   0.000   0.200   0.000    0.00
  21.250   11.63   -0.82    3.50   0.000   0.200   0.000    0.00
  21.300   11.89   -1.40    3.67   0.000   0.200   0.000    0.00
  21.350   12.14   -0.90    3.66   0.000   0.200   0.000    0.00
  21.400   11.94    0.95    2.82   0.000   0.200   0.000    0.00
  21.450   11.84   -0.41    2.74   0.000   0.200   0.000    0.00
  21.500   11.85   -0.55    1.95   0.000   0.200   0.000    0.00
  21.550   11.96   -3.70    2.14   0.000   0.200   0.000    0.00
  21.600   12.40   -2.24    2.05   0.000   0.200   0.000    0.00
  21.650   12.44   -1.81    2.69   0.000   0.200   0.000    0.00
  21.700   12.56   -0.01    2.65   0.000   0.200   0.000    0.00
  21.750   13.00   -0.13    2.11   0.000   0.200   0.000    0.00
  21.800   12.64   -0.34    1.50   0.000   0.200   0.000    0.00
  21.850   12.66   -1.63    1.61   0.000   0.200   0.000    0.00
  21.900   12.76    0.03    2.07   0.000   0.200   0.000    0.00
  21.950   13.21   -1.02    2.36   0.000   0.200   0.000    0.00
  22.000   13.11    1.27    2.25   0.000   0.200   0.000    0.00
  22.050   13.08   -0.85    1.85   0.000   0.200   0.000    0.00
  22.100   12.89   -0.15    1.77   0.000   0.200   0.000    0.00
  22.150   12.88   -0.38    2.13   0.000   0.200   0.000    0.00
  22.200   12.74    0.85    2.07   0.000   0.200   0.000    0.00
  22.250   13.56   -1.60    1.66   0.000   0.200   0.000    0.00
  22.300   12.88    0.15    2.05   0.000   0.200   0.000    0.00
  22.350   13.08   -0.05    2.12   0.000   0.200   0.000    0.00