! This hub-height wind-speed file was generated by TurbSim (v1.06.00, 21-Sep-2012) on 16-Jun-2018 at 18:39:22.
!
! The requested statistics for this data were:
!    Mean Total Wind Speed =   21.000 m/s
!    Turbulence Intensity  =   14.233%
!
!   Time  HorSpd  WndDir  VerSpd  HorShr  VerShr  LnVShr  GstSpd
!  (sec)   (m/s)   (deg)   (m/s)     (-)     (-)     (-)   (m/s)
   0.000   21.60   11.10    0.19   0.000   0.200   0.000    0.00
   0.050   22.15   12.98   -0.10   0.000   0.200   0.000    0.00
   0.100   22.20   11.87    0.77   0.000   0.200   0.000    0.00
   0.150   22.27   12.45    0.02   0.000   0.200   0.000    0.00
   0.200   21.16   12.99    0.06   0.000   0.200   0.000    0.00
   0.250   21.33   13.93   -0.44   0.000   0.200   0.000    0.00
   0.300   21.79   11.50   -0.58   0.000   0.200   0.000    0.00
   0.350   22.64    9.92   -0.22   0.000   0.200   0.000    0.00
   0.400   21.95    8.97   -0.69   0.000   0.200   0.000    0.00
   0.450   21.82    9.93   -0.31   0.000   0.200   0.000    0.00
   0.500   22.30    6.94   -0.75   0.000   0.200   0.000    0.00
   0.550   22.32    7.95   -1.06   0.000   0.200   0.000    0.00
   0.600   22.21   10.24   -0.78   0.000   0.200   0.000    0.00
   0.650   22.16   10.11   -0.87   0.000   0.200   0.000    0.00
   0.700   22.34    8.34   -1.61   0.000   0.200   0.000    0.00
   0.750   22.76    8.32   -1.48   0.000   0.200   0.000    0.00
   0.800   23.22    9.51   -0.81   0.000   0.200   0.000    0.00
   0.850   23.02   10.22   -0.98   0.000   0.200   0.000    0.00
   0.900   23.72   11.40   -0.45   0.000   0.200   0.000    0.00
   0.950   22.98   12.90   -1.51   0.000   0.200   0.000    0.00
   1.000   22.69   14.03   -1.92   0.000   0.200   0.000    0.00
   1.050   23.80   11.80   -2.18   0.000   0.200   0.000    0.00
   1.100   23.29    8.32   -2.73   0.000   0.200   0.000    0.00
   1.150   24.54    8.40   -2.47   0.000   0.200   0.000    0.00
   1.200   24.12    7.47   -1.72   0.000   0.200   0.000    0.00
   1.250   24.07    5.50   -0.36   0.000   0.200   0.000    0.00
   1.300   23.88    6.97    0.02   0.000   0.200   0.000    0.00
   1.350   24.13    5.33   -0.89   0.000   0.200   0.000    0.00
   1.400   24.08    7.64   -1.11   0.000   0.200   0.000    0.00
   1.450   23.04    9.78   -0.61   0.000   0.200   0.000    0.00
   1.500   23.55    9.79    0.42   0.000   0.200   0.000    0.00
   1.550   23.48    9.81   -0.08   0.000   0.200   0.000    0.00
   1.600   23.48   11.36    0.70   0.000   0.200   0.000    0.00
   1.650   22.95   10.16    0.99   0.000   0.200   0.000    0.00
   1.700   22.75   12.66    0.22   0.000   0.200   0.000    0.00
   1.750   21.81   10.56    0.44   0.000   0.200   0.000    0.00
   1.800   21.43   10.75   -0.07   0.000   0.200   0.000    0.00
   1.850   21.21    9.10    0.64   0.000   0.200   0.000    0.00
   1.900   20.16    7.98    0.70   0.000   0.200   0.000    0.00
   1.950   19.27    9.39    0.31   0.000   0.200   0.000    0.00
   2.000   18.88    9.93    0.52   0.000   0.200   0.000    0.00
   2.050   18.64   12.38    1.30   0.000   0.200   0.000    0.00
   2.100   19.85    6.59    1.02   0.000   0.200   0.000    0.00
   2.150   19.92    6.38    0.40   0.000   0.200   0.000    0.00
   2.200   19.99    2.25   -0.07   0.000   0.200   0.000    0.00
   2.250   19.86    1.64   -1.29   0.000   0.200   0.000    0.00
   2.300   20.44    0.82   -0.63   0.000   0.200   0.000    0.00
   2.350   19.76   -1.86   -0.82   0.000   0.200   0.000    0.00
   2.400   18.93    0.20   -1.22   0.000   0.200   0.000    0.00
   2.450   18.72    5.46   -0.90   0.000   0.200   0.000    0.00
   2.500   18.77    6.10    0.40   0.000   0.200   0.000    0.00
   2.550   18.35    4.34   -0.16   0.000   0.200   0.000    0.00
   2.600   17.92    2.22   -1.62   0.000   0.200   0.000    0.00
   2.650   19.08    3.91   -1.83   0.000   0.200   0.000    0.00
   2.700   20.24    3.21   -1.88   0.000   0.200   0.000    0.00
   2.750   20.75    6.59   -1.74   0.000   0.200   0.000    0.00
   2.800   20.28    5.16   -2.58   0.000   0.200   0.000    0.00
   2.850   20.11    5.41   -2.75   0.000   0.200   0.000    0.00
   2.900   20.56    2.80   -3.41   0.000   0.200   0.000    0.00
   2.950   20.97    0.46   -2.94   0.000   0.200   0.000    0.00
   3.000   20.69    1.76   -3.28   0.000   0.200   0.000    0.00
   3.050   20.07   -2.66   -3.46   0.000   0.200   0.000    0.00
   3.100   20.56   -3.61   -2.78   0.000   0.200   0.000    0.00
   3.150   19.49   -2.75   -3.40   0.000   0.200   0.000    0.00
   3.200   18.74   -4.09   -4.01   0.000   0.200   0.000    0.00
   3.250   18.69   -3.70   -4.49   0.000   0.200   0.000    0.00
   3.300   18.94   -2.57   -5.79   0.000   0.200   0.000    0.00
   3.350   19.48   -3.87   -4.48   0.000   0.200   0.000    0.00
   3.400   18.83   -0.44   -3.17   0.000   0.200   0.000    0.00
   3.450   19.45   -0.73   -2.22   0.000   0.200   0.000    0.00
   3.500   19.59   -1.86   -2.27   0.000   0.200   0.000    0.00
   3.550   19.04   -1.97   -2.88   0.000   0.200   0.000    0.00
   3.600   19.05   -3.52   -2.59   0.000   0.200   0.000    0.00
   3.650   19.77   -0.67   -2.57   0.000   0.200   0.000    0.00
   3.700   19.45   -4.55   -0.81   0.000   0.200   0.000    0.00
   3.750   19.45   -6.21   -0.57   0.000   0.200   0.000    0.00
   3.800   18.48   -3.00    0.81   0.000   0.200   0.000    0.00
   3.850   18.62   -3.90   -0.28   0.000   0.200   0.000    0.00
   3.900   18.64   -5.32   -1.01   0.000   0.200   0.000    0.00
   3.950   19.44   -7.31   -1.16   0.000   0.200   0.000    0.00
   4.000   19.03  -11.37   -0.41   0.000   0.200   0.000    0.00
   4.050   19.48  -14.43    0.50   0.000   0.200   0.000    0.00
   4.100   20.25  -15.69   -0.04   0.000   0.200   0.000    0.00
   4.150   19.61  -15.89    0.05   0.000   0.200   0.000    0.00
   4.200   20.34  -12.72    0.24   0.000   0.200   0.000    0.00
   4.250   20.64  -13.30    0.53   0.000   0.200   0.000    0.00
   4.300   20.89  -15.14    0.24   0.000   0.200   0.000    0.00
   4.350   20.67  -14.91    0.26   0.000   0.200   0.000    0.00
   4.400   20.05  -10.21    0.12   0.000   0.200   0.000    0.00
   4.450   19.51   -9.09    0.17   0.000   0.200   0.000    0.00
   4.500   19.39   -8.63   -0.05   0.000   0.200   0.000    0.00
   4.550   20.08  -10.55    0.59   0.000   0.200   0.000    0.00
   4.600   20.95   -9.75    1.88   0.000   0.200   0.000    0.00
   4.650   20.63   -9.95    1.48   0.000   0.200   0.000    0.00
   4.700   19.92   -8.12    2.10   0.000   0.200   0.000    0.00
   4.750   19.61   -4.50    2.33   0.000   0.200   0.000    0.00
   4.800   20.85   -2.93    2.65   0.000   0.200   0.000    0.00
   4.850   20.49   -4.87    2.90   0.000   0.200   0.000    0.00
   4.900   20.17   -3.19    2.84   0.000   0.200   0.000    0.00
   4.950   19.83   -2.57    2.26   0.000   0.200   0.000    0.00
   5.000   19.53   -0.48    2.34   0.000   0.200   0.000    0.00
   5.050   19.96   -1.83    1.95   0.000   0.200   0.000    0.00
   5.100   21.21   -1.56    1.40   0.000   0.200   0.000    0.00
   5.150   21.41   -3.40    1.35   0.000   0.200   0.000    0.00
   5.200   21.31   -3.78    2.10   0.000   0.200   0.000    0.00
   5.250   21.37   -0.13    2.16   0.000   0.200   0.000    0.00
   5.300   21.45    0.55    2.65   0.000   0.200   0.000    0.00
   5.350   21.56    2.08    2.51   0.000   0.200   0.000    0.00
   5.400   21.87    2.17    0.99   0.000   0.200   0.000    0.00
   5.450   21.95    3.96    1.04   0.000   0.200   0.000    0.00
   5.500   21.73    3.40    0.62   0.000   0.200   0.000    0.00
   5.550   22.78    0.54    0.68   0.000   0.200   0.000    0.00
   5.600   23.13   -1.55    0.70   0.000   0.200   0.000    0.00
   5.650   22.31    2.76    0.48   0.000   0.200   0.000    0.00
   5.700   22.07    1.60    0.06   0.000   0.200   0.000    0.00
   5.750   21.15   -1.91    1.21   0.000   0.200   0.000    0.00
   5.800   20.79    1.49    0.43   0.000   0.200   0.000    0.00
   5.850   20.12    3.34    1.16   0.000   0.200   0.000    0.00
   5.900   19.78    1.22    1.98   0.000   0.200   0.000    0.00
   5.950   20.37    0.55    1.23   0.000   0.200   0.000    0.00
   6.000   19.95    3.60    1.72   0.000   0.200   0.000    0.00
   6.050   20.10    3.68    1.35   0.000   0.200   0.000    0.00
   6.100   20.15    5.31    1.33   0.000   0.200   0.000    0.00
   6.150   20.38   10.03    1.21   0.000   0.200   0.000    0.00
   6.200   20.80    9.25    1.41   0.000   0.200   0.000    0.00
   6.250   21.47    8.31    1.52   0.000   0.200   0.000    0.00
   6.300   20.95    5.16    0.81   0.000   0.200   0.000    0.00
   6.350   20.69    3.86    0.40   0.000   0.200   0.000    0.00
   6.400   21.44    3.22    0.67   0.000   0.200   0.000    0.00
   6.450   20.68    3.37    0.47   0.000   0.200   0.000    0.00
   6.500   20.84    5.13    0.95   0.000   0.200   0.000    0.00
   6.550   21.66    7.17    0.96   0.000   0.200   0.000    0.00
   6.600   21.25    7.52    1.61   0.000   0.200   0.000    0.00
   6.650   20.87    9.25    1.59   0.000   0.200   0.000    0.00
   6.700   21.29    8.58    1.12   0.000   0.200   0.000    0.00
   6.750   19.99    6.39    1.52   0.000   0.200   0.000    0.00
   6.800   19.85    3.06    1.27   0.000   0.200   0.000    0.00
   6.850   20.01    4.23    1.06   0.000   0.200   0.000    0.00
   6.900   19.53    8.79    0.73   0.000   0.200   0.000    0.00
   6.950   19.79    5.98    0.45   0.000   0.200   0.000    0.00
   7.000   18.89    6.04    0.93   0.000   0.200   0.000    0.00
   7.050   18.59    6.41    1.62   0.000   0.200   0.000    0.00
   7.100   19.35    6.05    1.62   0.000   0.200   0.000    0.00
   7.150   20.07    4.66    2.18   0.000   0.200   0.000    0.00
   7.200   19.57    2.64    1.46   0.000   0.200   0.000    0.00
   7.250   18.69    1.28    0.27   0.000   0.200   0.000    0.00
   7.300   19.58    0.98    0.12   0.000   0.200   0.000    0.00
   7.350   20.13   -1.13    0.47   0.000   0.200   0.000    0.00
   7.400   19.52   -0.16    0.35   0.000   0.200   0.000    0.00
   7.450   18.39    2.00   -1.05   0.000   0.200   0.000    0.00
   7.500   17.92    3.76   -0.73   0.000   0.200   0.000    0.00
   7.550   18.57    1.10   -1.09   0.000   0.200   0.000    0.00
   7.600   19.46    2.11   -1.70   0.000   0.200   0.000    0.00
   7.650   19.45    1.08   -1.64   0.000   0.200   0.000    0.00
   7.700   19.74   -0.66   -0.50   0.000   0.200   0.000    0.00
   7.750   20.76    1.26   -0.02   0.000   0.200   0.000    0.00
   7.800   20.19    2.89    0.70   0.000   0.200   0.000    0.00
   7.850   19.56    4.75    1.47   0.000   0.200   0.000    0.00
   7.900   20.42    5.62    1.81   0.000   0.200   0.000    0.00
   7.950   19.48    5.52    2.21   0.000   0.200   0.000    0.00
   8.000   18.81    5.38    2.62   0.000   0.200   0.000    0.00
   8.050   19.38    5.18    2.49   0.000   0.200   0.000    0.00
   8.100   19.39    7.08    1.86   0.000   0.200   0.000    0.00
   8.150   19.82    7.08    0.99   0.000   0.200   0.000    0.00
   8.200   19.20    2.86    0.83   0.000   0.200   0.000    0.00
   8.250   19.63    4.51    0.71   0.000   0.200   0.000    0.00
   8.300   19.35    3.81   -0.94   0.000   0.200   0.000    0.00
   8.350   19.97    1.44   -0.46   0.000   0.200   0.000    0.00
   8.400   20.64    3.35   -0.54   0.000   0.200   0.000    0.00
   8.450   20.64    3.57   -1.24   0.000   0.200   0.000    0.00
   8.500   20.27    0.06   -1.08   0.000   0.200   0.000    0.00
   8.550   20.63   -2.31   -0.25   0.000   0.200   0.000    0.00
   8.600   20.31   -1.76    0.22   0.000   0.200   0.000    0.00
   8.650   21.02    0.47    0.12   0.000   0.200   0.000    0.00
   8.700   21.24    0.60    0.24   0.000   0.200   0.000    0.00
   8.750   21.03    2.18    0.22   0.000   0.200   0.000    0.00
   8.800   21.06    2.77    0.64   0.000   0.200   0.000    0.00
   8.850   20.55    1.32   -0.07   0.000   0.200   0.000    0.00
   8.900   21.40    1.53    0.59   0.000   0.200   0.000    0.00
   8.950   21.94    6.07    0.62   0.000   0.200   0.000    0.00
   9.000   21.60    6.13   -1.22   0.000   0.200   0.000    0.00
   9.050   21.95    5.59   -1.25   0.000   0.200   0.000    0.00
   9.100   21.79    2.28   -0.24   0.000   0.200   0.000    0.00
   9.150   20.86    0.07   -0.49   0.000   0.200   0.000    0.00
   9.200   20.39    0.16   -0.99   0.000   0.200   0.000    0.00
   9.250   20.98    2.07   -1.02   0.000   0.200   0.000    0.00
   9.300   21.25    5.00   -0.73   0.000   0.200   0.000    0.00
   9.350   21.08    6.30   -1.83   0.000   0.200   0.000    0.00
   9.400   21.52    2.72   -0.79   0.000   0.200   0.000    0.00
   9.450   22.22    2.14    0.35   0.000   0.200   0.000    0.00
   9.500   22.55    1.74   -0.16   0.000   0.200   0.000    0.00
   9.550   22.47   -0.78   -1.03   0.000   0.200   0.000    0.00
   9.600   21.53   -0.01   -2.24   0.000   0.200   0.000    0.00
   9.650   21.88   -0.47   -2.48   0.000   0.200   0.000    0.00
   9.700   21.94    1.94   -2.38   0.000   0.200   0.000    0.00
   9.750   21.81   -0.72   -1.92   0.000   0.200   0.000    0.00
   9.800   21.23   -0.27   -2.29   0.000   0.200   0.000    0.00
   9.850   21.13   -1.40   -1.82   0.000   0.200   0.000    0.00
   9.900   21.21   -1.09   -2.04   0.000   0.200   0.000    0.00
   9.950   21.63   -1.33   -2.09   0.000   0.200   0.000    0.00
  10.000   21.36    1.07   -2.01   0.000   0.200   0.000    0.00
  10.050   20.52    2.39   -1.56   0.000   0.200   0.000    0.00
  10.100   20.48    3.35   -0.66   0.000   0.200   0.000    0.00
  10.150   20.17    2.98   -0.54   0.000   0.200   0.000    0.00
  10.200   20.37    2.79   -0.97   0.000   0.200   0.000    0.00
  10.250   20.51    0.47    0.48   0.000   0.200   0.000    0.00
  10.300   21.00    1.72    1.11   0.000   0.200   0.000    0.00
  10.350   20.88   -1.10    0.71   0.000   0.200   0.000    0.00
  10.400   21.27   -1.46    1.21   0.000   0.200   0.000    0.00
  10.450   22.04    0.91    1.44   0.000   0.200   0.000    0.00
  10.500   21.68   -0.01    1.27   0.000   0.200   0.000    0.00
  10.550   21.19    0.38    0.50   0.000   0.200   0.000    0.00
  10.600   20.83   -0.98    0.59   0.000   0.200   0.000    0.00
  10.650   20.34   -2.30    0.76   0.000   0.200   0.000    0.00
  10.700   19.56   -1.02    0.09   0.000   0.200   0.000    0.00
  10.750   18.73    0.97   -0.05   0.000   0.200   0.000    0.00
  10.800   18.63    1.51    0.10   0.000   0.200   0.000    0.00
  10.850   19.73    3.00    0.78   0.000   0.200   0.000    0.00
  10.900   20.01    2.02    0.94   0.000   0.200   0.000    0.00
  10.950   19.66   -0.07    1.19   0.000   0.200   0.000    0.00
  11.000   19.95    0.43    0.89   0.000   0.200   0.000    0.00
  11.050   20.96    1.26    1.29   0.000   0.200   0.000    0.00
  11.100   20.66   -0.97    0.62   0.000   0.200   0.000    0.00
  11.150   20.90   -1.30    0.94   0.000   0.200   0.000    0.00
  11.200   21.39   -2.35    1.00   0.000   0.200   0.000    0.00
  11.250   20.70   -0.64    0.57   0.000   0.200   0.000    0.00
  11.300   20.75    1.84   -0.18   0.000   0.200   0.000    0.00
  11.350   20.80   -0.16   -0.54   0.000   0.200   0.000    0.00
  11.400   21.03   -1.05   -1.07   0.000   0.200   0.000    0.00
  11.450   21.22    0.96   -1.68   0.000   0.200   0.000    0.00
  11.500   21.21    4.55   -0.86   0.000   0.200   0.000    0.00
  11.550   22.39    5.93   -1.63   0.000   0.200   0.000    0.00
  11.600   22.83    5.79   -1.26   0.000   0.200   0.000    0.00
  11.650   23.03    4.29   -2.26   0.000   0.200   0.000    0.00
  11.700   23.23    3.88   -2.09   0.000   0.200   0.000    0.00
  11.750   23.15    5.47   -2.00   0.000   0.200   0.000    0.00
  11.800   23.36    3.64   -1.74   0.000   0.200   0.000    0.00
  11.850   23.35    1.14   -2.92   0.000   0.200   0.000    0.00
  11.900   23.83    1.29   -3.02   0.000   0.200   0.000    0.00
  11.950   24.16   -0.57   -2.66   0.000   0.200   0.000    0.00
  12.000   24.14    1.06   -3.23   0.000   0.200   0.000    0.00
  12.050   24.21   -0.34   -2.90   0.000   0.200   0.000    0.00
  12.100   24.12    0.60   -2.43   0.000   0.200   0.000    0.00
  12.150   24.71    2.78   -1.97   0.000   0.200   0.000    0.00
  12.200   24.31    2.76   -1.42   0.000   0.200   0.000    0.00
  12.250   23.92    4.74   -0.79   0.000   0.200   0.000    0.00
  12.300   24.83    4.69   -0.93   0.000   0.200   0.000    0.00
  12.350   23.81    5.28   -1.91   0.000   0.200   0.000    0.00
  12.400   24.00    7.31   -1.81   0.000   0.200   0.000    0.00
  12.450   23.32    6.19   -1.52   0.000   0.200   0.000    0.00
  12.500   23.08    5.90   -1.97   0.000   0.200   0.000    0.00
  12.550   24.08    8.83   -1.70   0.000   0.200   0.000    0.00
  12.600   23.82   11.65   -2.68   0.000   0.200   0.000    0.00
  12.650   24.71   10.41   -3.07   0.000   0.200   0.000    0.00
  12.700   25.57    9.31   -3.35   0.000   0.200   0.000    0.00
  12.750   25.54    9.49   -2.51   0.000   0.200   0.000    0.00
  12.800   23.99    6.32   -2.69   0.000   0.200   0.000    0.00
  12.850   23.59    8.12   -2.14   0.000   0.200   0.000    0.00
  12.900   23.15    9.50   -1.38   0.000   0.200   0.000    0.00
  12.950   23.51    8.66   -1.32   0.000   0.200   0.000    0.00
  13.000   22.26    7.61   -2.09   0.000   0.200   0.000    0.00
  13.050   21.85    6.58   -0.29   0.000   0.200   0.000    0.00
  13.100   20.75    3.44   -0.21   0.000   0.200   0.000    0.00
  13.150   21.00    5.04   -0.27   0.000   0.200   0.000    0.00
  13.200   20.93    7.87   -1.48   0.000   0.200   0.000    0.00
  13.250   21.28    8.90   -1.58   0.000   0.200   0.000    0.00
  13.300   21.88    7.33   -1.72   0.000   0.200   0.000    0.00
  13.350   21.77    7.52   -1.31   0.000   0.200   0.000    0.00
  13.400   21.72    6.62   -1.67   0.000   0.200   0.000    0.00
  13.450   21.70    6.80   -1.27   0.000   0.200   0.000    0.00
  13.500   21.40    7.71   -0.76   0.000   0.200   0.000    0.00
  13.550   21.05   10.29   -0.20   0.000   0.200   0.000    0.00
  13.600   20.87   11.99    0.29   0.000   0.200   0.000    0.00
  13.650   21.37   11.08    0.23   0.000   0.200   0.000    0.00
  13.700   22.40   10.56    0.86   0.000   0.200   0.000    0.00
  13.750   22.19    8.72    0.69   0.000   0.200   0.000    0.00
  13.800   22.06    9.72    0.49   0.000   0.200   0.000    0.00
  13.850   22.44    8.60    0.27   0.000   0.200   0.000    0.00
  13.900   22.01    8.41    0.73   0.000   0.200   0.000    0.00
  13.950   20.59    8.25    0.90   0.000   0.200   0.000    0.00
  14.000   20.22    4.58    0.80   0.000   0.200   0.000    0.00
  14.050   20.59    6.70    0.15   0.000   0.200   0.000    0.00
  14.100   21.75    7.62   -0.65   0.000   0.200   0.000    0.00
  14.150   20.78    6.12   -0.36   0.000   0.200   0.000    0.00
  14.200   21.29    4.18   -0.92   0.000   0.200   0.000    0.00
  14.250   21.04    1.24   -2.06   0.000   0.200   0.000    0.00
  14.300   20.72    2.50   -1.50   0.000   0.200   0.000    0.00
  14.350   20.90    4.22   -1.69   0.000   0.200   0.000    0.00
  14.400   21.13    6.18   -1.43   0.000   0.200   0.000    0.00
  14.450   21.29    5.34   -1.87   0.000   0.200   0.000    0.00
  14.500   20.48    5.89   -2.68   0.000   0.200   0.000    0.00
  14.550   20.85    5.36   -1.81   0.000   0.200   0.000    0.00
  14.600   20.65    4.23   -1.81   0.000   0.200   0.000    0.00
  14.650   20.23    3.12   -0.94   0.000   0.200   0.000    0.00
  14.700   21.28    2.91   -1.12   0.000   0.200   0.000    0.00
  14.750   20.35    4.04   -1.54   0.000   0.200   0.000    0.00
  14.800   20.27    1.29   -1.82   0.000   0.200   0.000    0.00
  14.850   20.47   -0.45   -1.83   0.000   0.200   0.000    0.00
  14.900   20.97    0.38   -2.41   0.000   0.200   0.000    0.00
  14.950   21.39    0.15   -2.05   0.000   0.200   0.000    0.00
  15.000   21.48    0.52   -2.97   0.000   0.200   0.000    0.00
  15.050   21.66    4.49   -2.89   0.000   0.200   0.000    0.00
  15.100   21.81    4.56   -2.24   0.000   0.200   0.000    0.00
  15.150   22.89    1.85   -1.50   0.000   0.200   0.000    0.00
  15.200   22.93    1.97   -1.39   0.000   0.200   0.000    0.00
  15.250   23.31    0.55   -0.85   0.000   0.200   0.000    0.00
  15.300   23.58    3.94   -0.83   0.000   0.200   0.000    0.00
  15.350   22.82    1.50   -0.69   0.000   0.200   0.000    0.00
  15.400   22.09   -2.22   -0.83   0.000   0.200   0.000    0.00
  15.450   22.51   -3.13    0.60   0.000   0.200   0.000    0.00
  15.500   22.62   -1.22    1.64   0.000   0.200   0.000    0.00
  15.550   23.04   -2.52    1.70   0.000   0.200   0.000    0.00
  15.600   22.70   -5.26    2.61   0.000   0.200   0.000    0.00
  15.650   23.38   -3.02    3.07   0.000   0.200   0.000    0.00
  15.700   24.73   -4.01    1.93   0.000   0.200   0.000    0.00
  15.750   24.89   -2.84    2.06   0.000   0.200   0.000    0.00
  15.800   24.45   -4.94    2.00   0.000   0.200   0.000    0.00
  15.850   24.59   -3.60    1.88   0.000   0.200   0.000    0.00
  15.900   22.70   -5.03    1.75   0.000   0.200   0.000    0.00
  15.950   22.09   -5.55    1.69   0.000   0.200   0.000    0.00
  16.000   22.47   -4.59    1.71   0.000   0.200   0.000    0.00
  16.050   22.64   -4.56    1.10   0.000   0.200   0.000    0.00
  16.100   23.00   -3.51    1.09   0.000   0.200   0.000    0.00
  16.150   23.68   -2.80    0.98   0.000   0.200   0.000    0.00
  16.200   23.87   -1.04    0.37   0.000   0.200   0.000    0.00
  16.250   24.04    1.53    2.01   0.000   0.200   0.000    0.00
  16.300   22.96    2.25    3.19   0.000   0.200   0.000    0.00
  16.350   23.49    2.54    3.99   0.000   0.200   0.000    0.00
  16.400   23.07    1.96    2.88   0.000   0.200   0.000    0.00
  16.450   23.60    2.48    2.93   0.000   0.200   0.000    0.00
  16.500   23.44    4.97    2.59   0.000   0.200   0.000    0.00
  16.550   23.30    3.42    0.97   0.000   0.200   0.000    0.00
  16.600   22.49    3.85    1.14   0.000   0.200   0.000    0.00
  16.650   23.20    4.77    0.47   0.000   0.200   0.000    0.00
  16.700   23.83    0.98    1.35   0.000   0.200   0.000    0.00
  16.750   23.74   -0.25    0.80   0.000   0.200   0.000    0.00
  16.800   23.87    0.50    1.63   0.000   0.200   0.000    0.00
  16.850   24.42    1.90    1.07   0.000   0.200   0.000    0.00
  16.900   25.12    1.83    0.06   0.000   0.200   0.000    0.00
  16.950   25.00    0.42   -0.15   0.000   0.200   0.000    0.00
  17.000   24.33   -0.82    0.74   0.000   0.200   0.000    0.00
  17.050   23.72    0.01    1.02   0.000   0.200   0.000    0.00
  17.100   24.18    0.48   -0.40   0.000   0.200   0.000    0.00
  17.150   24.04    1.57   -1.00   0.000   0.200   0.000    0.00
  17.200   24.59    2.67   -1.70   0.000   0.200   0.000    0.00
  17.250   24.08    1.88   -1.77   0.000   0.200   0.000    0.00
  17.300   23.89    2.61   -1.36   0.000   0.200   0.000    0.00
  17.350   23.31    1.88   -1.05   0.000   0.200   0.000    0.00
  17.400   22.88    1.84   -1.05   0.000   0.200   0.000    0.00
  17.450   22.49   -1.79   -0.72   0.000   0.200   0.000    0.00
  17.500   23.05   -2.60   -0.80   0.000   0.200   0.000    0.00
  17.550   23.87    1.76   -0.45   0.000   0.200   0.000    0.00
  17.600   24.33    2.66    0.58   0.000   0.200   0.000    0.00
  17.650   24.17    0.72    0.51   0.000   0.200   0.000    0.00
  17.700   24.49   -0.13    0.47   0.000   0.200   0.000    0.00
  17.750   23.18    2.90    0.49   0.000   0.200   0.000    0.00
  17.800   22.80    3.76    0.21   0.000   0.200   0.000    0.00
  17.850   23.29    3.67   -0.41   0.000   0.200   0.000    0.00
  17.900   22.90    2.53   -1.19   0.000   0.200   0.000    0.00
  17.950   22.58    1.81   -0.51   0.000   0.200   0.000    0.00
  18.000   22.67    2.15   -0.22   0.000   0.200   0.000    0.00
  18.050   22.39    2.03   -0.33   0.000   0.200   0.000    0.00
  18.100   22.94    2.31   -0.74   0.000   0.200   0.000    0.00
  18.150   22.33    3.74   -0.62   0.000   0.200   0.000    0.00
  18.200   22.50    2.24   -0.49   0.000   0.200   0.000    0.00
  18.250   22.52    4.90   -0.61   0.000   0.200   0.000    0.00
  18.300   22.14    5.55   -0.02   0.000   0.200   0.000    0.00
  18.350   23.06    3.96    0.14   0.000   0.200   0.000    0.00
  18.400   22.88    4.46    0.44   0.000   0.200   0.000    0.00
  18.450   22.59    3.42    1.58   0.000   0.200   0.000    0.00
  18.500   23.29    4.88    1.09   0.000   0.200   0.000    0.00
  18.550   24.24    2.81    0.31   0.000   0.200   0.000    0.00
  18.600   23.92    4.65    0.52   0.000   0.200   0.000    0.00
  18.650   23.92    3.45    1.10   0.000   0.200   0.000    0.00
  18.700   24.84    1.04    0.91   0.000   0.200   0.000    0.00
  18.750   24.71   -0.26    0.45   0.000   0.200   0.000    0.00
  18.800   23.82    0.27    1.81   0.000   0.200   0.000    0.00
  18.850   23.57    2.91    2.44   0.000   0.200   0.000    0.00
  18.900   24.17    5.10    2.30   0.000   0.200   0.000    0.00
  18.950   24.00    3.61    2.31   0.000   0.200   0.000    0.00
  19.000   23.89    3.49    1.15   0.000   0.200   0.000    0.00
  19.050   23.52    3.66    2.72   0.000   0.200   0.000    0.00
  19.100   24.29    2.67    2.43   0.000   0.200   0.000    0.00
  19.150   24.02    4.86    1.91   0.000   0.200   0.000    0.00
  19.200   24.51    6.77    0.48   0.000   0.200   0.000    0.00
  19.250   24.12    7.65    0.24   0.000   0.200   0.000    0.00
  19.300   24.61    9.85    0.12   0.000   0.200   0.000    0.00
  19.350   25.85    9.35   -0.76   0.000   0.200   0.000    0.00
  19.400   25.50    7.69   -0.67   0.000   0.200   0.000    0.00
  19.450   25.37    7.42   -0.37   0.000   0.200   0.000    0.00
  19.500   24.42    8.86   -1.02   0.000   0.200   0.000    0.00
  19.550   23.96    7.70   -0.63   0.000   0.200   0.000    0.00
  19.600   23.50    6.96   -1.47   0.000   0.200   0.000    0.00
  19.650   23.85    5.37   -2.90   0.000   0.200   0.000    0.00
  19.700   23.39    5.16   -2.27   0.000   0.200   0.000    0.00
  19.750   23.23    4.31   -2.22   0.000   0.200   0.000    0.00
  19.800   24.06    5.77   -2.39   0.000   0.200   0.000    0.00
  19.850   24.21    7.17   -2.87   0.000   0.200   0.000    0.00
  19.900   24.69    6.16   -3.15   0.000   0.200   0.000    0.00
  19.950   25.44    8.42   -2.51   0.000   0.200   0.000    0.00
  20.000   24.78    9.23   -2.30   0.000   0.200   0.000    0.00
  20.050   24.61    8.89   -2.84   0.000   0.200   0.000    0.00
  20.100   24.30   10.22   -3.01   0.000   0.200   0.000    0.00
  20.150   24.16    7.27   -3.32   0.000   0.200   0.000    0.00
  20.200   23.78    7.65   -5.09   0.000   0.200   0.000    0.00
  20.250   24.57    7.09   -3.98   0.000   0.200   0.000    0.00
  20.300   24.77    3.67   -3.55   0.000   0.200   0.000    0.00
  20.350   25.09    3.73   -2.92   0.000   0.200   0.000    0.00
  20.400   26.43    5.80   -3.50   0.000   0.200   0.000    0.00
  20.450   26.63    6.95   -3.21   0.000   0.200   0.000    0.00
  20.500   25.75    7.95   -2.72   0.000   0.200   0.000    0.00
  20.550   25.62    8.15   -2.11   0.000   0.200   0.000    0.00
  20.600   25.31    7.30   -1.31   0.000   0.200   0.000    0.00
  20.650   25.26    8.45   -1.30   0.000   0.200   0.000    0.00
  20.700   25.33   10.82   -2.53   0.000   0.200   0.000    0.00
  20.750   24.37   10.62   -2.36   0.000   0.200   0.000    0.00
  20.800   23.89    8.47   -2.69   0.000   0.200   0.000    0.00
  20.850   23.84    7.54   -1.62   0.000   0.200   0.000    0.00
  20.900   24.61    7.39   -1.93   0.000   0.200   0.000    0.00
  20.950   25.43    6.69   -2.38   0.000   0.200   0.000    0.00
  21.000   25.25    8.83   -2.92   0.000   0.200   0.000    0.00
  21.050   24.53    8.03   -2.09   0.000   0.200   0.000    0.00
  21.100   24.39    6.28   -2.09   0.000   0.200   0.000    0.00
  21.150   24.59    5.66   -2.46   0.000   0.200   0.000    0.00
  21.200   25.72    6.22   -2.75   0.000   0.200   0.000    0.00
  21.250   26.51    6.85   -2.57   0.000   0.200   0.000    0.00
  21.300   26.66    4.22   -3.12   0.000   0.200   0.000    0.00
  21.350   26.45    4.36   -2.79   0.000   0.200   0.000    0.00
  21.400   25.13    6.84   -2.75   0.000   0.200   0.000    0.00
  21.450   25.74    7.86   -3.85   0.000   0.200   0.000    0.00
  21.500   26.74    9.37   -2.64   0.000   0.200   0.000    0.00
  21.550   26.42    7.92   -2.98   0.000   0.200   0.000    0.00
  21.600   27.17    9.77   -1.65   0.000   0.200   0.000    0.00
  21.650   27.38    7.72   -1.36   0.000   0.200   0.000    0.00
  21.700   27.10    6.50   -2.34   0.000   0.200   0.000    0.00
  21.750   27.47    4.85   -2.61   0.000   0.200   0.000    0.00
  21.800   27.55    5.54   -2.23   0.000   0.200   0.000    0.00
  21.850   26.50    4.89   -1.71   0.000   0.200   0.000    0.00
  21.900   26.02    5.27   -3.13   0.000   0.200   0.000    0.00
  21.950   25.64    7.68   -4.24   0.000   0.200   0.000    0.00
  22.000   25.37    9.16   -4.35   0.000   0.200   0.000    0.00
  22.050   25.05    9.82   -3.41   0.000   0.200   0.000    0.00
  22.100   25.08   11.84   -3.43   0.000   0.200   0.000    0.00
  22.150   24.94   12.88   -1.84   0.000   0.200   0.000    0.00
  22.200   24.72   11.75   -1.93   0.000   0.200   0.000    0.00
  22.250   24.04   10.06   -1.45   0.000   0.200   0.000    0.00
  22.300   23.95    9.47   -2.63   0.000   0.200   0.000    0.00
  22.350   23.77   10.20   -3.19   0.000   0.200   0.000    0.00