! This hub-height wind-speed file was generated by TurbSim (v1.06.00, 21-Sep-2012) on 16-Jun-2018 at 18:39:31.
!
! The requested statistics for this data were:
!    Mean Total Wind Speed =   23.000 m/s
!    Turbulence Intensity  =   13.909%
!
!   Time  HorSpd  WndDir  VerSpd  HorShr  VerShr  LnVShr  GstSpd
!  (sec)   (m/s)   (deg)   (m/s)     (-)     (-)     (-)   (m/s)
   0.000   23.72   10.73    0.19   0.000   0.200   0.000    0.00
   0.050   24.32   12.63   -0.13   0.000   0.200   0.000    0.00
   0.100   24.39   11.51    0.83   0.000   0.200   0.000    0.00
   0.150   24.47   12.09    0.02   0.000   0.200   0.000    0.00
   0.200   23.23   12.62    0.06   0.000   0.200   0.000    0.00
   0.250   23.43   13.56   -0.49   0.000   0.200   0.000    0.00
   0.300   23.94   11.14   -0.64   0.000   0.200   0.000    0.00
   0.350   24.88    9.56   -0.24   0.000   0.200   0.000    0.00
   0.400   24.11    8.61   -0.75   0.000   0.200   0.000    0.00
   0.450   23.96    9.58   -0.33   0.000   0.200   0.000    0.00
   0.500   24.49    6.58   -0.81   0.000   0.200   0.000    0.00
   0.550   24.51    7.60   -1.15   0.000   0.200   0.000    0.00
   0.600   24.38    9.90   -0.84   0.000   0.200   0.000    0.00
   0.650   24.31    9.78   -0.93   0.000   0.200   0.000    0.00
   0.700   24.51    8.00   -1.75   0.000   0.200   0.000    0.00
   0.750   24.95    8.00   -1.60   0.000   0.200   0.000    0.00
   0.800   25.46    9.21   -0.86   0.000   0.200   0.000    0.00
   0.850   25.22    9.92   -1.05   0.000   0.200   0.000    0.00
   0.900   25.99   11.12   -0.46   0.000   0.200   0.000    0.00
   0.950   25.16   12.63   -1.63   0.000   0.200   0.000    0.00
   1.000   24.83   13.77   -2.07   0.000   0.200   0.000    0.00
   1.050   26.06   11.54   -2.36   0.000   0.200   0.000    0.00
   1.100   25.50    8.03   -2.97   0.000   0.200   0.000    0.00
   1.150   26.88    8.13   -2.68   0.000   0.200   0.000    0.00
   1.200   26.41    7.19   -1.86   0.000   0.200   0.000    0.00
   1.250   26.36    5.21   -0.36   0.000   0.200   0.000    0.00
   1.300   26.14    6.69    0.05   0.000   0.200   0.000    0.00
   1.350   26.43    5.05   -0.95   0.000   0.200   0.000    0.00
   1.400   26.36    7.37   -1.19   0.000   0.200   0.000    0.00
   1.450   25.21    9.52   -0.65   0.000   0.200   0.000    0.00
   1.500   25.78    9.54    0.48   0.000   0.200   0.000    0.00
   1.550   25.69    9.56   -0.07   0.000   0.200   0.000    0.00
   1.600   25.68   11.13    0.79   0.000   0.200   0.000    0.00
   1.650   25.10    9.92    1.11   0.000   0.200   0.000    0.00
   1.700   24.87   12.45    0.26   0.000   0.200   0.000    0.00
   1.750   23.83   10.32    0.50   0.000   0.200   0.000    0.00
   1.800   23.41   10.52   -0.06   0.000   0.200   0.000    0.00
   1.850   23.16    8.86    0.72   0.000   0.200   0.000    0.00
   1.900   22.00    7.72    0.79   0.000   0.200   0.000    0.00
   1.950   21.01    9.14    0.36   0.000   0.200   0.000    0.00
   2.000   20.57    9.69    0.59   0.000   0.200   0.000    0.00
   2.050   20.31   12.18    1.45   0.000   0.200   0.000    0.00
   2.100   21.65    6.35    1.14   0.000   0.200   0.000    0.00
   2.150   21.72    6.14    0.46   0.000   0.200   0.000    0.00
   2.200   21.80    1.98   -0.04   0.000   0.200   0.000    0.00
   2.250   21.66    1.37   -1.39   0.000   0.200   0.000    0.00
   2.300   22.30    0.55   -0.65   0.000   0.200   0.000    0.00
   2.350   21.55   -2.16   -0.86   0.000   0.200   0.000    0.00
   2.400   20.63   -0.08   -1.30   0.000   0.200   0.000    0.00
   2.450   20.40    5.24   -0.94   0.000   0.200   0.000    0.00
   2.500   20.46    5.89    0.50   0.000   0.200   0.000    0.00
   2.550   19.99    4.12   -0.12   0.000   0.200   0.000    0.00
   2.600   19.52    1.96   -1.72   0.000   0.200   0.000    0.00
   2.650   20.79    3.69   -1.95   0.000   0.200   0.000    0.00
   2.700   22.08    3.01   -2.00   0.000   0.200   0.000    0.00
   2.750   22.63    6.43   -1.84   0.000   0.200   0.000    0.00
   2.800   22.11    4.99   -2.76   0.000   0.200   0.000    0.00
   2.850   21.91    5.26   -2.94   0.000   0.200   0.000    0.00
   2.900   22.40    2.62   -3.67   0.000   0.200   0.000    0.00
   2.950   22.86    0.27   -3.14   0.000   0.200   0.000    0.00
   3.000   22.54    1.59   -3.52   0.000   0.200   0.000    0.00
   3.050   21.87   -2.89   -3.72   0.000   0.200   0.000    0.00
   3.100   22.41   -3.84   -2.96   0.000   0.200   0.000    0.00
   3.150   21.22   -2.96   -3.64   0.000   0.200   0.000    0.00
   3.200   20.39   -4.33   -4.31   0.000   0.200   0.000    0.00
   3.250   20.33   -3.92   -4.84   0.000   0.200   0.000    0.00
   3.300   20.60   -2.78   -6.28   0.000   0.200   0.000    0.00
   3.350   21.19   -4.08   -4.84   0.000   0.200   0.000    0.00
   3.400   20.47   -0.61   -3.40   0.000   0.200   0.000    0.00
   3.450   21.15   -0.89   -2.36   0.000   0.200   0.000    0.00
   3.500   21.29   -2.03   -2.42   0.000   0.200   0.000    0.00
   3.550   20.68   -2.14   -3.10   0.000   0.200   0.000    0.00
   3.600   20.70   -3.71   -2.78   0.000   0.200   0.000    0.00
   3.650   21.48   -0.81   -2.77   0.000   0.200   0.000    0.00
   3.700   21.14   -4.74   -0.84   0.000   0.200   0.000    0.00
   3.750   21.14   -6.42   -0.58   0.000   0.200   0.000    0.00
   3.800   20.06   -3.16    0.93   0.000   0.200   0.000    0.00
   3.850   20.23   -4.07   -0.27   0.000   0.200   0.000    0.00
   3.900   20.25   -5.50   -1.08   0.000   0.200   0.000    0.00
   3.950   21.13   -7.50   -1.25   0.000   0.200   0.000    0.00
   4.000   20.69  -11.61   -0.43   0.000   0.200   0.000    0.00
   4.050   21.20  -14.70    0.57   0.000   0.200   0.000    0.00
   4.100   22.05  -15.96   -0.04   0.000   0.200   0.000    0.00
   4.150   21.34  -16.17    0.07   0.000   0.200   0.000    0.00
   4.200   22.15  -12.94    0.27   0.000   0.200   0.000    0.00
   4.250   22.48  -13.53    0.59   0.000   0.200   0.000    0.00
   4.300   22.77  -15.38    0.26   0.000   0.200   0.000    0.00
   4.350   22.52  -15.15    0.27   0.000   0.200   0.000    0.00
   4.400   21.84  -10.40    0.12   0.000   0.200   0.000    0.00
   4.450   21.24   -9.28    0.18   0.000   0.200   0.000    0.00
   4.500   21.11   -8.82   -0.08   0.000   0.200   0.000    0.00
   4.550   21.87  -10.75    0.62   0.000   0.200   0.000    0.00
   4.600   22.84   -9.93    2.04   0.000   0.200   0.000    0.00
   4.650   22.49  -10.14    1.59   0.000   0.200   0.000    0.00
   4.700   21.71   -8.30    2.27   0.000   0.200   0.000    0.00
   4.750   21.37   -4.65    2.52   0.000   0.200   0.000    0.00
   4.800   22.73   -3.06    2.86   0.000   0.200   0.000    0.00
   4.850   22.34   -5.02    3.14   0.000   0.200   0.000    0.00
   4.900   21.98   -3.33    3.07   0.000   0.200   0.000    0.00
   4.950   21.61   -2.71    2.43   0.000   0.200   0.000    0.00
   5.000   21.27   -0.60    2.52   0.000   0.200   0.000    0.00
   5.050   21.74   -1.97    2.09   0.000   0.200   0.000    0.00
   5.100   23.12   -1.69    1.48   0.000   0.200   0.000    0.00
   5.150   23.34   -3.56    1.42   0.000   0.200   0.000    0.00
   5.200   23.24   -3.94    2.26   0.000   0.200   0.000    0.00
   5.250   23.30   -0.26    2.32   0.000   0.200   0.000    0.00
   5.300   23.38    0.43    2.86   0.000   0.200   0.000    0.00
   5.350   23.50    1.97    2.71   0.000   0.200   0.000    0.00
   5.400   23.85    2.05    1.04   0.000   0.200   0.000    0.00
   5.450   23.93    3.86    1.09   0.000   0.200   0.000    0.00
   5.500   23.69    3.29    0.64   0.000   0.200   0.000    0.00
   5.550   24.85    0.40    0.70   0.000   0.200   0.000    0.00
   5.600   25.25   -1.71    0.73   0.000   0.200   0.000    0.00
   5.650   24.34    2.64    0.49   0.000   0.200   0.000    0.00
   5.700   24.09    1.47    0.02   0.000   0.200   0.000    0.00
   5.750   23.07   -2.10    1.28   0.000   0.200   0.000    0.00
   5.800   22.67    1.33    0.43   0.000   0.200   0.000    0.00
   5.850   21.94    3.20    1.23   0.000   0.200   0.000    0.00
   5.900   21.57    1.04    2.13   0.000   0.200   0.000    0.00
   5.950   22.22    0.37    1.30   0.000   0.200   0.000    0.00
   6.000   21.75    3.44    1.84   0.000   0.200   0.000    0.00
   6.050   21.92    3.53    1.43   0.000   0.200   0.000    0.00
   6.100   21.97    5.17    1.41   0.000   0.200   0.000    0.00
   6.150   22.22    9.94    1.28   0.000   0.200   0.000    0.00
   6.200   22.67    9.15    1.51   0.000   0.200   0.000    0.00
   6.250   23.40    8.20    1.62   0.000   0.200   0.000    0.00
   6.300   22.82    5.02    0.84   0.000   0.200   0.000    0.00
   6.350   22.52    3.70    0.40   0.000   0.200   0.000    0.00
   6.400   23.34    3.06    0.70   0.000   0.200   0.000    0.00
   6.450   22.49    3.21    0.47   0.000   0.200   0.000    0.00
   6.500   22.65    4.99    1.00   0.000   0.200   0.000    0.00
   6.550   23.54    7.06    1.01   0.000   0.200   0.000    0.00
   6.600   23.08    7.42    1.72   0.000   0.200   0.000    0.00
   6.650   22.65    9.18    1.71   0.000   0.200   0.000    0.00
   6.700   23.11    8.50    1.19   0.000   0.200   0.000    0.00
   6.750   21.67    6.28    1.63   0.000   0.200   0.000    0.00
   6.800   21.51    2.89    1.35   0.000   0.200   0.000    0.00
   6.850   21.69    4.08    1.13   0.000   0.200   0.000    0.00
   6.900   21.15    8.73    0.77   0.000   0.200   0.000    0.00
   6.950   21.43    5.86    0.45   0.000   0.200   0.000    0.00
   7.000   20.43    5.92    0.98   0.000   0.200   0.000    0.00
   7.050   20.09    6.30    1.75   0.000   0.200   0.000    0.00
   7.100   20.94    5.94    1.75   0.000   0.200   0.000    0.00
   7.150   21.72    4.54    2.36   0.000   0.200   0.000    0.00
   7.200   21.17    2.47    1.57   0.000   0.200   0.000    0.00
   7.250   20.19    1.08    0.26   0.000   0.200   0.000    0.00
   7.300   21.17    0.79    0.11   0.000   0.200   0.000    0.00
   7.350   21.78   -1.36    0.49   0.000   0.200   0.000    0.00
   7.400   21.10   -0.38    0.36   0.000   0.200   0.000    0.00
   7.450   19.84    1.81   -1.17   0.000   0.200   0.000    0.00
   7.500   19.32    3.62   -0.81   0.000   0.200   0.000    0.00
   7.550   20.04    0.90   -1.20   0.000   0.200   0.000    0.00
   7.600   21.02    1.94   -1.88   0.000   0.200   0.000    0.00
   7.650   21.00    0.89   -1.81   0.000   0.200   0.000    0.00
   7.700   21.32   -0.89   -0.56   0.000   0.200   0.000    0.00
   7.750   22.44    1.09   -0.04   0.000   0.200   0.000    0.00
   7.800   21.82    2.74    0.76   0.000   0.200   0.000    0.00
   7.850   21.11    4.63    1.59   0.000   0.200   0.000    0.00
   7.900   22.06    5.52    1.97   0.000   0.200   0.000    0.00
   7.950   21.03    5.41    2.41   0.000   0.200   0.000    0.00
   8.000   20.29    5.27    2.86   0.000   0.200   0.000    0.00
   8.050   20.93    5.06    2.72   0.000   0.200   0.000    0.00
   8.100   20.94    7.01    2.02   0.000   0.200   0.000    0.00
   8.150   21.43    7.01    1.07   0.000   0.200   0.000    0.00
   8.200   20.74    2.70    0.90   0.000   0.200   0.000    0.00
   8.250   21.23    4.39    0.77   0.000   0.200   0.000    0.00
   8.300   20.93    3.66   -1.04   0.000   0.200   0.000    0.00
   8.350   21.62    1.25   -0.51   0.000   0.200   0.000    0.00
   8.400   22.37    3.21   -0.60   0.000   0.200   0.000    0.00
   8.450   22.38    3.43   -1.36   0.000   0.200   0.000    0.00
   8.500   21.98   -0.14   -1.18   0.000   0.200   0.000    0.00
   8.550   22.40   -2.54   -0.27   0.000   0.200   0.000    0.00
   8.600   22.06   -1.99    0.25   0.000   0.200   0.000    0.00
   8.650   22.84    0.28    0.14   0.000   0.200   0.000    0.00
   8.700   23.09    0.42    0.27   0.000   0.200   0.000    0.00
   8.750   22.86    2.02    0.25   0.000   0.200   0.000    0.00
   8.800   22.90    2.61    0.71   0.000   0.200   0.000    0.00
   8.850   22.35    1.14   -0.07   0.000   0.200   0.000    0.00
   8.900   23.28    1.36    0.67   0.000   0.200   0.000    0.00
   8.950   23.87    5.96    0.70   0.000   0.200   0.000    0.00
   9.000   23.50    6.02   -1.32   0.000   0.200   0.000    0.00
   9.050   23.89    5.47   -1.36   0.000   0.200   0.000    0.00
   9.100   23.72    2.12   -0.24   0.000   0.200   0.000    0.00
   9.150   22.69   -0.12   -0.51   0.000   0.200   0.000    0.00
   9.200   22.18   -0.04   -1.06   0.000   0.200   0.000    0.00
   9.250   22.84    1.91   -1.09   0.000   0.200   0.000    0.00
   9.300   23.14    4.87   -0.77   0.000   0.200   0.000    0.00
   9.350   22.96    6.19   -1.97   0.000   0.200   0.000    0.00
   9.400   23.45    2.56   -0.83   0.000   0.200   0.000    0.00
   9.450   24.23    1.99    0.43   0.000   0.200   0.000    0.00
   9.500   24.60    1.59   -0.13   0.000   0.200   0.000    0.00
   9.550   24.53   -0.96   -1.09   0.000   0.200   0.000    0.00
   9.600   23.50   -0.19   -2.42   0.000   0.200   0.000    0.00
   9.650   23.91   -0.65   -2.67   0.000   0.200   0.000    0.00
   9.700   23.97    1.78   -2.57   0.000   0.200   0.000    0.00
   9.750   23.85   -0.89   -2.06   0.000   0.200   0.000    0.00
   9.800   23.22   -0.45   -2.47   0.000   0.200   0.000    0.00
   9.850   23.12   -1.58   -1.95   0.000   0.200   0.000    0.00
   9.900   23.22   -1.27   -2.20   0.000   0.200   0.000    0.00
   9.950   23.69   -1.51   -2.25   0.000   0.200   0.000    0.00
  10.000   23.40    0.90   -2.16   0.000   0.200   0.000    0.00
  10.050   22.47    2.23   -1.67   0.000   0.200   0.000    0.00
  10.100   22.43    3.19   -0.69   0.000   0.200   0.000    0.00
  10.150   22.09    2.81   -0.56   0.000   0.200   0.000    0.00
  10.200   22.32    2.62   -1.04   0.000   0.200   0.000    0.00
  10.250   22.47    0.28    0.56   0.000   0.200   0.000    0.00
  10.300   23.00    1.55    1.24   0.000   0.200   0.000    0.00
  10.350   22.88   -1.29    0.80   0.000   0.200   0.000    0.00
  10.400   23.29   -1.65    1.34   0.000   0.200   0.000    0.00
  10.450   24.14    0.75    1.60   0.000   0.200   0.000    0.00
  10.500   23.73   -0.18    1.41   0.000   0.200   0.000    0.00
  10.550   23.19    0.20    0.57   0.000   0.200   0.000    0.00
  10.600   22.79   -1.17    0.66   0.000   0.200   0.000    0.00
  10.650   22.23   -2.51    0.85   0.000   0.200   0.000    0.00
  10.700   21.36   -1.23    0.11   0.000   0.200   0.000    0.00
  10.750   20.44    0.77   -0.04   0.000   0.200   0.000    0.00
  10.800   20.32    1.32    0.13   0.000   0.200   0.000    0.00
  10.850   21.53    2.83    0.87   0.000   0.200   0.000    0.00
  10.900   21.83    1.85    1.05   0.000   0.200   0.000    0.00
  10.950   21.45   -0.27    1.33   0.000   0.200   0.000    0.00
  11.000   21.76    0.24    1.00   0.000   0.200   0.000    0.00
  11.050   22.88    1.08    1.44   0.000   0.200   0.000    0.00
  11.100   22.55   -1.18    0.70   0.000   0.200   0.000    0.00
  11.150   22.81   -1.51    1.06   0.000   0.200   0.000    0.00
  11.200   23.36   -2.56    1.13   0.000   0.200   0.000    0.00
  11.250   22.60   -0.84    0.66   0.000   0.200   0.000    0.00
  11.300   22.66    1.66   -0.16   0.000   0.200   0.000    0.00
  11.350   22.71   -0.37   -0.56   0.000   0.200   0.000    0.00
  11.400   22.97   -1.27   -1.12   0.000   0.200   0.000    0.00
  11.450   23.19    0.76   -1.80   0.000   0.200   0.000    0.00
  11.500   23.17    4.37   -0.88   0.000   0.200   0.000    0.00
  11.550   24.47    5.77   -1.73   0.000   0.200   0.000    0.00
  11.600   24.96    5.63   -1.32   0.000   0.200   0.000    0.00
  11.650   25.19    4.12   -2.42   0.000   0.200   0.000    0.00
  11.700   25.41    3.71   -2.23   0.000   0.200   0.000    0.00
  11.750   25.33    5.31   -2.13   0.000   0.200   0.000    0.00
  11.800   25.56    3.46   -1.83   0.000   0.200   0.000    0.00
  11.850   25.55    0.95   -3.13   0.000   0.200   0.000    0.00
  11.900   26.09    1.10   -3.23   0.000   0.200   0.000    0.00
  11.950   26.46   -0.78   -2.84   0.000   0.200   0.000    0.00
  12.000   26.45    0.87   -3.46   0.000   0.200   0.000    0.00
  12.050   26.53   -0.55   -3.11   0.000   0.200   0.000    0.00
  12.100   26.42    0.39   -2.59   0.000   0.200   0.000    0.00
  12.150   27.07    2.59   -2.08   0.000   0.200   0.000    0.00
  12.200   26.63    2.56   -1.48   0.000   0.200   0.000    0.00
  12.250   26.21    4.55   -0.79   0.000   0.200   0.000    0.00
  12.300   27.21    4.50   -0.94   0.000   0.200   0.000    0.00
  12.350   26.09    5.08   -2.02   0.000   0.200   0.000    0.00
  12.400   26.29    7.12   -1.91   0.000   0.200   0.000    0.00
  12.450   25.54    5.98   -1.58   0.000   0.200   0.000    0.00
  12.500   25.27    5.69   -2.08   0.000   0.200   0.000    0.00
  12.550   26.36    8.65   -1.78   0.000   0.200   0.000    0.00
  12.600   26.08   11.48   -2.86   0.000   0.200   0.000    0.00
  12.650   27.05   10.23   -3.29   0.000   0.200   0.000    0.00
  12.700   28.00    9.13   -3.60   0.000   0.200   0.000    0.00
  12.750   27.96    9.31   -2.67   0.000   0.200   0.000    0.00
  12.800   26.25    6.12   -2.88   0.000   0.200   0.000    0.00
  12.850   25.81    7.93   -2.27   0.000   0.200   0.000    0.00
  12.900   25.32    9.31   -1.43   0.000   0.200   0.000    0.00
  12.950   25.72    8.47   -1.37   0.000   0.200   0.000    0.00
  13.000   24.34    7.40   -2.23   0.000   0.200   0.000    0.00
  13.050   23.89    6.36   -0.25   0.000   0.200   0.000    0.00
  13.100   22.68    3.18   -0.16   0.000   0.200   0.000    0.00
  13.150   22.96    4.80   -0.24   0.000   0.200   0.000    0.00
  13.200   22.88    7.65   -1.57   0.000   0.200   0.000    0.00
  13.250   23.26    8.69   -1.67   0.000   0.200   0.000    0.00
  13.300   23.92    7.11   -1.83   0.000   0.200   0.000    0.00
  13.350   23.79    7.30   -1.38   0.000   0.200   0.000    0.00
  13.400   23.74    6.39   -1.77   0.000   0.200   0.000    0.00
  13.450   23.71    6.58   -1.34   0.000   0.200   0.000    0.00
  13.500   23.37    7.50   -0.78   0.000   0.200   0.000    0.00
  13.550   22.98   10.10   -0.18   0.000   0.200   0.000    0.00
  13.600   22.77   11.82    0.37   0.000   0.200   0.000    0.00
  13.650   23.31   10.90    0.29   0.000   0.200   0.000    0.00
  13.700   24.45   10.39    0.98   0.000   0.200   0.000    0.00
  13.750   24.22    8.53    0.80   0.000   0.200   0.000    0.00
  13.800   24.08    9.54    0.58   0.000   0.200   0.000    0.00
  13.850   24.50    8.42    0.33   0.000   0.200   0.000    0.00
  13.900   24.03    8.22    0.84   0.000   0.200   0.000    0.00
  13.950   22.47    8.05    1.02   0.000   0.200   0.000    0.00
  14.000   22.06    4.34    0.92   0.000   0.200   0.000    0.00
  14.050   22.47    6.49    0.20   0.000   0.200   0.000    0.00
  14.100   23.74    7.44   -0.68   0.000   0.200   0.000    0.00
  14.150   22.68    5.91   -0.34   0.000   0.200   0.000    0.00
  14.200   23.24    3.96   -0.97   0.000   0.200   0.000    0.00
  14.250   22.96    1.00   -2.21   0.000   0.200   0.000    0.00
  14.300   22.60    2.27   -1.60   0.000   0.200   0.000    0.00
  14.350   22.80    4.01   -1.81   0.000   0.200   0.000    0.00
  14.400   23.05    6.00   -1.51   0.000   0.200   0.000    0.00
  14.450   23.22    5.15   -2.00   0.000   0.200   0.000    0.00
  14.500   22.33    5.70   -2.88   0.000   0.200   0.000    0.00
  14.550   22.75    5.18   -1.93   0.000   0.200   0.000    0.00
  14.600   22.53    4.03   -1.93   0.000   0.200   0.000    0.00
  14.650   22.07    2.91   -0.97   0.000   0.200   0.000    0.00
  14.700   23.23    2.72   -1.18   0.000   0.200   0.000    0.00
  14.750   22.21    3.85   -1.63   0.000   0.200   0.000    0.00
  14.800   22.13    1.07   -1.95   0.000   0.200   0.000    0.00
  14.850   22.35   -0.68   -1.96   0.000   0.200   0.000    0.00
  14.900   22.90    0.16   -2.59   0.000   0.200   0.000    0.00
  14.950   23.37   -0.05   -2.20   0.000   0.200   0.000    0.00
  15.000   23.48    0.32   -3.21   0.000   0.200   0.000    0.00
  15.050   23.67    4.33   -3.13   0.000   0.200   0.000    0.00
  15.100   23.83    4.40   -2.42   0.000   0.200   0.000    0.00
  15.150   25.03    1.68   -1.61   0.000   0.200   0.000    0.00
  15.200   25.08    1.81   -1.50   0.000   0.200   0.000    0.00
  15.250   25.49    0.38   -0.91   0.000   0.200   0.000    0.00
  15.300   25.78    3.80   -0.89   0.000   0.200   0.000    0.00
  15.350   24.94    1.34   -0.74   0.000   0.200   0.000    0.00
  15.400   24.14   -2.42   -0.91   0.000   0.200   0.000    0.00
  15.450   24.59   -3.33    0.66   0.000   0.200   0.000    0.00
  15.500   24.71   -1.40    1.80   0.000   0.200   0.000    0.00
  15.550   25.17   -2.71    1.86   0.000   0.200   0.000    0.00
  15.600   24.80   -5.48    2.86   0.000   0.200   0.000    0.00
  15.650   25.55   -3.20    3.35   0.000   0.200   0.000    0.00
  15.700   27.05   -4.19    2.10   0.000   0.200   0.000    0.00
  15.750   27.23   -3.00    2.23   0.000   0.200   0.000    0.00
  15.800   26.75   -5.13    2.17   0.000   0.200   0.000    0.00
  15.850   26.91   -3.78    2.04   0.000   0.200   0.000    0.00
  15.900   24.83   -5.23    1.90   0.000   0.200   0.000    0.00
  15.950   24.16   -5.75    1.83   0.000   0.200   0.000    0.00
  16.000   24.59   -4.78    1.85   0.000   0.200   0.000    0.00
  16.050   24.78   -4.76    1.17   0.000   0.200   0.000    0.00
  16.100   25.18   -3.70    1.17   0.000   0.200   0.000    0.00
  16.150   25.93   -2.98    1.04   0.000   0.200   0.000    0.00
  16.200   26.15   -1.21    0.36   0.000   0.200   0.000    0.00
  16.250   26.33    1.38    2.17   0.000   0.200   0.000    0.00
  16.300   25.13    2.09    3.47   0.000   0.200   0.000    0.00
  16.350   25.73    2.39    4.35   0.000   0.200   0.000    0.00
  16.400   25.26    1.79    3.13   0.000   0.200   0.000    0.00
  16.450   25.84    2.32    3.18   0.000   0.200   0.000    0.00
  16.500   25.67    4.83    2.81   0.000   0.200   0.000    0.00
  16.550   25.50    3.26    1.04   0.000   0.200   0.000    0.00
  16.600   24.61    3.69    1.23   0.000   0.200   0.000    0.00
  16.650   25.39    4.62    0.49   0.000   0.200   0.000    0.00
  16.700   26.10    0.80    1.46   0.000   0.200   0.000    0.00
  16.750   25.99   -0.44    0.86   0.000   0.200   0.000    0.00
  16.800   26.14    0.32    1.78   0.000   0.200   0.000    0.00
  16.850   26.75    1.74    1.16   0.000   0.200   0.000    0.00
  16.900   27.52    1.67    0.06   0.000   0.200   0.000    0.00
  16.950   27.39    0.25   -0.17   0.000   0.200   0.000    0.00
  17.000   26.65   -1.00    0.81   0.000   0.200   0.000    0.00
  17.050   25.97   -0.17    1.13   0.000   0.200   0.000    0.00
  17.100   26.48    0.30   -0.44   0.000   0.200   0.000    0.00
  17.150   26.33    1.39   -1.09   0.000   0.200   0.000    0.00
  17.200   26.93    2.50   -1.86   0.000   0.200   0.000    0.00
  17.250   26.37    1.71   -1.93   0.000   0.200   0.000    0.00
  17.300   26.15    2.44   -1.48   0.000   0.200   0.000    0.00
  17.350   25.51    1.70   -1.13   0.000   0.200   0.000    0.00
  17.400   25.04    1.65   -1.14   0.000   0.200   0.000    0.00
  17.450   24.62   -2.01   -0.78   0.000   0.200   0.000    0.00
  17.500   25.24   -2.83   -0.86   0.000   0.200   0.000    0.00
  17.550   26.12    1.57   -0.48   0.000   0.200   0.000    0.00
  17.600   26.63    2.48    0.66   0.000   0.200   0.000    0.00
  17.650   26.46    0.52    0.58   0.000   0.200   0.000    0.00
  17.700   26.81   -0.33    0.53   0.000   0.200   0.000    0.00
  17.750   25.36    2.70    0.56   0.000   0.200   0.000    0.00
  17.800   24.94    3.57    0.24   0.000   0.200   0.000    0.00
  17.850   25.48    3.48   -0.44   0.000   0.200   0.000    0.00
  17.900   25.05    2.33   -1.29   0.000   0.200   0.000    0.00
  17.950   24.70    1.60   -0.55   0.000   0.200   0.000    0.00
  18.000   24.79    1.94   -0.23   0.000   0.200   0.000    0.00
  18.050   24.48    1.81   -0.35   0.000   0.200   0.000    0.00
  18.100   25.08    2.10   -0.80   0.000   0.200   0.000    0.00
  18.150   24.42    3.53   -0.66   0.000   0.200   0.000    0.00
  18.200   24.59    2.01   -0.53   0.000   0.200   0.000    0.00
  18.250   24.61    4.69   -0.65   0.000   0.200   0.000    0.00
  18.300   24.19    5.35   -0.01   0.000   0.200   0.000    0.00
  18.350   25.21    3.75    0.17   0.000   0.200   0.000    0.00
  18.400   25.00    4.26    0.49   0.000   0.200   0.000    0.00
  18.450   24.68    3.20    1.74   0.000   0.200   0.000    0.00
  18.500   25.45    4.68    1.21   0.000   0.200   0.000    0.00
  18.550   26.49    2.59    0.35   0.000   0.200   0.000    0.00
  18.600   26.13    4.45    0.57   0.000   0.200   0.000    0.00
  18.650   26.14    3.23    1.21   0.000   0.200   0.000    0.00
  18.700   27.15    0.81    1.01   0.000   0.200   0.000    0.00
  18.750   27.00   -0.51    0.49   0.000   0.200   0.000    0.00
  18.800   26.02    0.02    1.99   0.000   0.200   0.000    0.00
  18.850   25.73    2.68    2.69   0.000   0.200   0.000    0.00
  18.900   26.39    4.90    2.53   0.000   0.200   0.000    0.00
  18.950   26.21    3.39    2.54   0.000   0.200   0.000    0.00
  19.000   26.09    3.26    1.27   0.000   0.200   0.000    0.00
  19.050   25.68    3.42    3.00   0.000   0.200   0.000    0.00
  19.100   26.53    2.42    2.68   0.000   0.200   0.000    0.00
  19.150   26.24    4.63    2.12   0.000   0.200   0.000    0.00
  19.200   26.77    6.56    0.55   0.000   0.200   0.000    0.00
  19.250   26.34    7.44    0.29   0.000   0.200   0.000    0.00
  19.300   26.89    9.66    0.17   0.000   0.200   0.000    0.00
  19.350   28.26    9.16   -0.79   0.000   0.200   0.000    0.00
  19.400   27.87    7.48   -0.69   0.000   0.200   0.000    0.00
  19.450   27.73    7.20   -0.35   0.000   0.200   0.000    0.00
  19.500   26.68    8.64   -1.06   0.000   0.200   0.000    0.00
  19.550   26.17    7.47   -0.62   0.000   0.200   0.000    0.00
  19.600   25.66    6.72   -1.54   0.000   0.200   0.000    0.00
  19.650   26.06    5.12   -3.11   0.000   0.200   0.000    0.00
  19.700   25.54    4.90   -2.40   0.000   0.200   0.000    0.00
  19.750   25.37    4.04   -2.34   0.000   0.200   0.000    0.00
  19.800   26.28    5.52   -2.53   0.000   0.200   0.000    0.00
  19.850   26.45    6.93   -3.05   0.000   0.200   0.000    0.00
  19.900   26.98    5.91   -3.36   0.000   0.200   0.000    0.00
  19.950   27.80    8.19   -2.65   0.000   0.200   0.000    0.00
  20.000   27.07    9.01   -2.41   0.000   0.200   0.000    0.00
  20.050   26.88    8.66   -3.00   0.000   0.200   0.000    0.00
  20.100   26.54   10.00   -3.18   0.000   0.200   0.000    0.00
  20.150   26.38    7.02   -3.52   0.000   0.200   0.000    0.00
  20.200   25.95    7.40   -5.46   0.000   0.200   0.000    0.00
  20.250   26.82    6.84   -4.24   0.000   0.200   0.000    0.00
  20.300   27.05    3.39   -3.77   0.000   0.200   0.000    0.00
  20.350   27.40    3.46   -3.07   0.000   0.200   0.000    0.00
  20.400   28.87    5.56   -3.72   0.000   0.200   0.000    0.00
  20.450   29.07    6.72   -3.40   0.000   0.200   0.000    0.00
  20.500   28.09    7.72   -2.86   0.000   0.200   0.000    0.00
  20.550   27.94    7.92   -2.19   0.000   0.200   0.000    0.00
  20.600   27.60    7.06   -1.31   0.000   0.200   0.000    0.00
  20.650   27.53    8.23   -1.30   0.000   0.200   0.000    0.00
  20.700   27.61   10.62   -2.65   0.000   0.200   0.000    0.00
  20.750   26.54   10.41   -2.46   0.000   0.200   0.000    0.00
  20.800   26.01    8.23   -2.83   0.000   0.200   0.000    0.00
  20.850   25.94    7.29   -1.65   0.000   0.200   0.000    0.00
  20.900   26.79    7.15   -1.99   0.000   0.200   0.000    0.00
  20.950   27.69    6.45   -2.49   0.000   0.200   0.000    0.00
  21.000   27.48    8.62   -3.08   0.000   0.200   0.000    0.00
  21.050   26.69    7.80   -2.16   0.000   0.200   0.000    0.00
  21.100   26.53    6.02   -2.17   0.000   0.200   0.000    0.00
  21.150   26.74    5.40   -2.57   0.000   0.200   0.000    0.00
  21.200   27.99    5.99   -2.88   0.000   0.200   0.000    0.00
  21.250   28.85    6.63   -2.69   0.000   0.200   0.000    0.00
  21.300   29.01    3.97   -3.29   0.000   0.200   0.000    0.00
  21.350   28.77    4.11   -2.92   0.000   0.200   0.000    0.00
  21.400   27.30    6.60   -2.88   0.000   0.200   0.000    0.00
  21.450   27.96    7.65   -4.09   0.000   0.200   0.000    0.00
  21.500   29.05    9.19   -2.76   0.000   0.200   0.000    0.00
  21.550   28.70    7.72   -3.14   0.000   0.200   0.000    0.00
  21.600   29.51    9.61   -1.68   0.000   0.200   0.000    0.00
  21.650   29.74    7.52   -1.35   0.000   0.200   0.000    0.00
  21.700   29.42    6.29   -2.43   0.000   0.200   0.000    0.00
  21.750   29.83    4.61   -2.73   0.000   0.200   0.000    0.00
  21.800   29.91    5.31   -2.31   0.000   0.200   0.000    0.00
  21.850   28.75    4.64   -1.73   0.000   0.200   0.000    0.00
  21.900   28.23    5.02   -3.30   0.000   0.200   0.000    0.00
  21.950   27.80    7.47   -4.52   0.000   0.200   0.000    0.00
  22.000   27.51    8.97   -4.63   0.000   0.200   0.000    0.00
  22.050   27.15    9.63   -3.61   0.000   0.200   0.000    0.00
  22.100   27.19   11.68   -3.63   0.000   0.200   0.000    0.00
  22.150   27.03   12.73   -1.88   0.000   0.200   0.000    0.00
  22.200   26.80   11.58   -1.98   0.000   0.200   0.000    0.00
  22.250   26.06    9.85   -1.45   0.000   0.200   0.000    0.00
  22.300   25.96    9.25   -2.75   0.000   0.200   0.000    0.00
  22.350   25.77    9.98   -3.37   0.000   0.200   0.000    0.00