! This hub-height wind-speed file was generated by TurbSim (v1.06.00, 21-Sep-2012) on 16-Jun-2018 at 18:37:09.
!
! The requested statistics for this data were:
!    Mean Total Wind Speed =    9.000 m/s
!    Turbulence Intensity  =   32.007%
!
!   Time  HorSpd  WndDir  VerSpd  HorShr  VerShr  LnVShr  GstSpd
!  (sec)   (m/s)   (deg)   (m/s)     (-)     (-)     (-)   (m/s)
   0.000    6.27  -37.43   -0.34   0.000   0.200   0.000    0.00
   0.050    6.34  -43.14    0.00   0.000   0.200   0.000    0.00
   0.100    5.50  -36.64    0.78   0.000   0.200   0.000    0.00
   0.150    5.83  -38.14    0.41   0.000   0.200   0.000    0.00
   0.200    5.80  -39.93   -0.19   0.000   0.200   0.000    0.00
   0.250    5.56  -40.66    0.21   0.000   0.200   0.000    0.00
   0.300    5.83  -36.94    0.21   0.000   0.200   0.000    0.00
   0.350    5.92  -32.27    0.65   0.000   0.200   0.000    0.00
   0.400    5.42  -33.76    0.47   0.000   0.200   0.000    0.00
   0.450    4.96  -37.18    0.91   0.000   0.200   0.000    0.00
   0.500    4.82  -42.66    0.73   0.000   0.200   0.000    0.00
   0.550    5.47  -35.30    0.38   0.000   0.200   0.000    0.00
   0.600    5.60  -35.63   -0.43   0.000   0.200   0.000    0.00
   0.650    5.30  -32.14   -0.33   0.000   0.200   0.000    0.00
   0.700    5.97  -33.41   -0.06   0.000   0.200   0.000    0.00
   0.750    6.58  -28.82   -0.42   0.000   0.200   0.000    0.00
   0.800    6.23  -26.11   -0.29   0.000   0.200   0.000    0.00
   0.850    6.61  -27.79    0.46   0.000   0.200   0.000    0.00
   0.900    6.62  -26.23    0.55   0.000   0.200   0.000    0.00
   0.950    6.99  -27.34   -0.16   0.000   0.200   0.000    0.00
   1.000    6.68  -22.88   -1.00   0.000   0.200   0.000    0.00
   1.050    6.86  -25.79   -0.44   0.000   0.200   0.000    0.00
   1.100    6.63  -26.48   -0.22   0.000   0.200   0.000    0.00
   1.150    6.16  -27.53    0.37   0.000   0.200   0.000    0.00
   1.200    6.33  -25.29    0.20   0.000   0.200   0.000    0.00
   1.250    6.72  -31.32    1.38   0.000   0.200   0.000    0.00
   1.300    6.79  -36.76    1.79   0.000   0.200   0.000    0.00
   1.350    6.54  -33.92    2.03   0.000   0.200   0.000    0.00
   1.400    6.43  -35.62    2.19   0.000   0.200   0.000    0.00
   1.450    6.00  -37.71    2.40   0.000   0.200   0.000    0.00
   1.500    6.01  -35.89    2.69   0.000   0.200   0.000    0.00
   1.550    6.69  -36.19    3.16   0.000   0.200   0.000    0.00
   1.600    6.12  -29.34    3.35   0.000   0.200   0.000    0.00
   1.650    5.14  -28.25    2.61   0.000   0.200   0.000    0.00
   1.700    5.33  -31.04    1.95   0.000   0.200   0.000    0.00
   1.750    5.37  -22.88    1.88   0.000   0.200   0.000    0.00
   1.800    5.60  -23.91    1.08   0.000   0.200   0.000    0.00
   1.850    5.69  -23.46    0.75   0.000   0.200   0.000    0.00
   1.900    5.60  -26.11    1.03   0.000   0.200   0.000    0.00
   1.950    4.86  -21.46    1.65   0.000   0.200   0.000    0.00
   2.000    4.54  -26.93    1.43   0.000   0.200   0.000    0.00
   2.050    4.86  -21.40    0.99   0.000   0.200   0.000    0.00
   2.100    4.96  -12.35    0.79   0.000   0.200   0.000    0.00
   2.150    4.84   -4.95    0.91   0.000   0.200   0.000    0.00
   2.200    5.20   -3.02    0.61   0.000   0.200   0.000    0.00
   2.250    4.75  -10.24    1.21   0.000   0.200   0.000    0.00
   2.300    5.34   -7.14    0.89   0.000   0.200   0.000    0.00
   2.350    5.84   -6.24   -0.02   0.000   0.200   0.000    0.00
   2.400    6.03   -6.87    0.36   0.000   0.200   0.000    0.00
   2.450    5.44   -7.25    0.89   0.000   0.200   0.000    0.00
   2.500    4.74   -4.80    1.90   0.000   0.200   0.000    0.00
   2.550    5.02   -6.54    1.66   0.000   0.200   0.000    0.00
   2.600    4.24   -2.39    1.78   0.000   0.200   0.000    0.00
   2.650    4.92   -8.27    1.65   0.000   0.200   0.000    0.00
   2.700    4.57   -1.12    1.55   0.000   0.200   0.000    0.00
   2.750    4.68   -2.09    2.06   0.000   0.200   0.000    0.00
   2.800    4.43   -3.20    2.72   0.000   0.200   0.000    0.00
   2.850    4.05    0.47    3.07   0.000   0.200   0.000    0.00
   2.900    4.18    1.00    3.93   0.000   0.200   0.000    0.00
   2.950    4.02   -0.87    3.34   0.000   0.200   0.000    0.00
   3.000    4.04   -0.43    3.59   0.000   0.200   0.000    0.00
   3.050    3.97    0.22    3.09   0.000   0.200   0.000    0.00
   3.100    4.51    1.40    2.82   0.000   0.200   0.000    0.00
   3.150    5.09   -3.83    3.34   0.000   0.200   0.000    0.00
   3.200    4.53   -7.00    2.86   0.000   0.200   0.000    0.00
   3.250    4.01   -4.27    2.13   0.000   0.200   0.000    0.00
   3.300    3.98  -15.07    1.80   0.000   0.200   0.000    0.00
   3.350    3.62  -17.57    1.02   0.000   0.200   0.000    0.00
   3.400    2.96   -8.05    0.23   0.000   0.200   0.000    0.00
   3.450    2.42    2.21    0.21   0.000   0.200   0.000    0.00
   3.500    2.24  -11.06    1.10   0.000   0.200   0.000    0.00
   3.550    2.96  -19.98    1.10   0.000   0.200   0.000    0.00
   3.600    2.98  -19.66    1.15   0.000   0.200   0.000    0.00
   3.650    2.70    0.25    0.97   0.000   0.200   0.000    0.00
   3.700    3.19   -1.41    0.82   0.000   0.200   0.000    0.00
   3.750    3.56   -0.11    0.55   0.000   0.200   0.000    0.00
   3.800    3.52    5.23    0.31   0.000   0.200   0.000    0.00
   3.850    3.89    3.68    0.39   0.000   0.200   0.000    0.00
   3.900    3.88   -2.74   -0.23   0.000   0.200   0.000    0.00
   3.950    3.17   -7.89    0.18   0.000   0.200   0.000    0.00
   4.000    2.63   -7.32    0.23   0.000   0.200   0.000    0.00
   4.050    3.73  -17.10   -0.32   0.000   0.200   0.000    0.00
   4.100    3.83   -9.25   -0.70   0.000   0.200   0.000    0.00
   4.150    3.52   -8.06   -0.74   0.000   0.200   0.000    0.00
   4.200    3.13  -18.15    0.30   0.000   0.200   0.000    0.00
   4.250    3.84  -15.04    0.45   0.000   0.200   0.000    0.00
   4.300    3.64   -7.72    0.78   0.000   0.200   0.000    0.00
   4.350    3.50   -4.22    0.20   0.000   0.200   0.000    0.00
   4.400    3.83    1.87    0.03   0.000   0.200   0.000    0.00
   4.450    4.11    7.06   -0.79   0.000   0.200   0.000    0.00
   4.500    3.78    4.03   -0.26   0.000   0.200   0.000    0.00
   4.550    3.60    1.71    0.61   0.000   0.200   0.000    0.00
   4.600    3.61   -1.58    0.37   0.000   0.200   0.000    0.00
   4.650    3.47    7.58    0.35   0.000   0.200   0.000    0.00
   4.700    3.90   15.74    0.83   0.000   0.200   0.000    0.00
   4.750    3.97   21.98    1.12   0.000   0.200   0.000    0.00
   4.800    4.29   15.67    1.44   0.000   0.200   0.000    0.00
   4.850    4.24   11.82    1.88   0.000   0.200   0.000    0.00
   4.900    4.30   10.66    1.42   0.000   0.200   0.000    0.00
   4.950    3.89    4.69    1.71   0.000   0.200   0.000    0.00
   5.000    3.54   -0.66    1.93   0.000   0.200   0.000    0.00
   5.050    4.78  -10.22    1.01   0.000   0.200   0.000    0.00
   5.100    4.45  -14.65    1.16   0.000   0.200   0.000    0.00
   5.150    4.46  -12.61    0.93   0.000   0.200   0.000    0.00
   5.200    4.07  -24.74   -0.29   0.000   0.200   0.000    0.00
   5.250    4.19  -27.93   -0.10   0.000   0.200   0.000    0.00
   5.300    3.96  -19.79    0.54   0.000   0.200   0.000    0.00
   5.350    4.16  -16.03    0.95   0.000   0.200   0.000    0.00
   5.400    4.45  -21.33    0.41   0.000   0.200   0.000    0.00
   5.450    4.29  -29.11    0.17   0.000   0.200   0.000    0.00
   5.500    4.28  -31.96    1.18   0.000   0.200   0.000    0.00
   5.550    4.12  -17.52    0.98   0.000   0.200   0.000    0.00
   5.600    4.54  -22.97    1.00   0.000   0.200   0.000    0.00
   5.650    4.58  -20.40    1.51   0.000   0.200   0.000    0.00
   5.700    5.01  -15.93    2.66   0.000   0.200   0.000    0.00
   5.750    5.58  -14.44    2.37   0.000   0.200   0.000    0.00
   5.800    4.75  -21.00    2.83   0.000   0.200   0.000    0.00
   5.850    4.60  -29.48    1.98   0.000   0.200   0.000    0.00
   5.900    4.70  -26.31    1.91   0.000   0.200   0.000    0.00
   5.950    4.72  -29.41    2.70   0.000   0.200   0.000    0.00
   6.000    4.65  -26.72    2.33   0.000   0.200   0.000    0.00
   6.050    3.83  -26.35    2.10   0.000   0.200   0.000    0.00
   6.100    3.89  -32.84    3.03   0.000   0.200   0.000    0.00
   6.150    4.40  -23.94    2.49   0.000   0.200   0.000    0.00
   6.200    4.51  -30.78    1.87   0.000   0.200   0.000    0.00
   6.250    3.62  -27.55    1.97   0.000   0.200   0.000    0.00
   6.300    4.01  -34.44    2.20   0.000   0.200   0.000    0.00
   6.350    3.74  -32.30    1.45   0.000   0.200   0.000    0.00
   6.400    3.13  -43.79    1.11   0.000   0.200   0.000    0.00
   6.450    2.96  -29.26    0.95   0.000   0.200   0.000    0.00
   6.500    2.85  -31.92   -0.37   0.000   0.200   0.000    0.00
   6.550    2.89  -29.55   -1.19   0.000   0.200   0.000    0.00
   6.600    2.67  -27.39   -0.74   0.000   0.200   0.000    0.00
   6.650    2.15  -19.11    0.16   0.000   0.200   0.000    0.00
   6.700    2.71  -23.98   -0.41   0.000   0.200   0.000    0.00
   6.750    2.95  -29.08   -0.61   0.000   0.200   0.000    0.00
   6.800    3.14  -28.57    0.95   0.000   0.200   0.000    0.00
   6.850    3.51  -39.69    0.64   0.000   0.200   0.000    0.00
   6.900    3.34  -40.22    0.53   0.000   0.200   0.000    0.00
   6.950    3.57  -40.73    0.33   0.000   0.200   0.000    0.00
   7.000    3.67  -37.97    0.35   0.000   0.200   0.000    0.00
   7.050    2.59  -23.97    0.98   0.000   0.200   0.000    0.00
   7.100    2.77  -27.73    0.74   0.000   0.200   0.000    0.00
   7.150    2.62  -44.21   -0.20   0.000   0.200   0.000    0.00
   7.200    3.23  -52.24   -0.75   0.000   0.200   0.000    0.00
   7.250    3.23  -45.44   -0.33   0.000   0.200   0.000    0.00
   7.300    3.14  -44.24   -0.50   0.000   0.200   0.000    0.00
   7.350    3.39  -30.16   -0.42   0.000   0.200   0.000    0.00
   7.400    2.88  -35.15   -0.50   0.000   0.200   0.000    0.00
   7.450    2.45  -47.32    0.08   0.000   0.200   0.000    0.00
   7.500    1.87  -60.30    0.07   0.000   0.200   0.000    0.00
   7.550    1.98  -55.03    0.32   0.000   0.200   0.000    0.00
   7.600    1.94  -52.44    0.05   0.000   0.200   0.000    0.00
   7.650    1.67  -50.00   -0.87   0.000   0.200   0.000    0.00
   7.700    2.07  -41.96   -0.56   0.000   0.200   0.000    0.00
   7.750    2.35  -44.80   -0.93   0.000   0.200   0.000    0.00
   7.800    1.62  -54.42   -0.53   0.000   0.200   0.000    0.00
   7.850    1.40  -53.20    0.27   0.000   0.200   0.000    0.00
   7.900    1.54  -65.78    0.43   0.000   0.200   0.000    0.00
   7.950    0.93  -81.77    1.12   0.000   0.200   0.000    0.00
   8.000    0.90 -101.58    0.09   0.000   0.200   0.000    0.00
   8.050    1.17  -77.57   -0.27   0.000   0.200   0.000    0.00
   8.100    1.02  -68.90   -0.67   0.000   0.200   0.000    0.00
   8.150    2.38  -67.74   -1.20   0.000   0.200   0.000    0.00
   8.200    1.81  -57.39   -1.52   0.000   0.200   0.000    0.00
   8.250    2.01  -54.62   -1.21   0.000   0.200   0.000    0.00
   8.300    1.77  -53.04   -0.95   0.000   0.200   0.000    0.00
   8.350    1.83  -54.50   -1.25   0.000   0.200   0.000    0.00
   8.400    2.91  -52.43   -0.64   0.000   0.200   0.000    0.00
   8.450    2.49  -62.93   -0.89   0.000   0.200   0.000    0.00
   8.500    2.81  -65.74   -0.15   0.000   0.200   0.000    0.00
   8.550    3.05  -54.63    0.87   0.000   0.200   0.000    0.00
   8.600    2.81  -37.16    0.71   0.000   0.200   0.000    0.00
   8.650    2.78  -35.37   -0.77   0.000   0.200   0.000    0.00
   8.700    3.06  -23.51   -1.08   0.000   0.200   0.000    0.00
   8.750    2.60  -27.59    0.01   0.000   0.200   0.000    0.00
   8.800    3.10  -27.44   -0.51   0.000   0.200   0.000    0.00
   8.850    3.13  -24.65   -0.01   0.000   0.200   0.000    0.00
   8.900    3.39  -12.99   -0.98   0.000   0.200   0.000    0.00
   8.950    3.31   -5.45   -0.93   0.000   0.200   0.000    0.00
   9.000    3.54  -11.81   -1.57   0.000   0.200   0.000    0.00
   9.050    3.72   -4.83   -1.84   0.000   0.200   0.000    0.00
   9.100    3.43    0.50   -1.54   0.000   0.200   0.000    0.00
   9.150    3.35   -8.38   -1.22   0.000   0.200   0.000    0.00
   9.200    3.89  -20.03   -2.10   0.000   0.200   0.000    0.00
   9.250    3.94  -23.88   -1.41   0.000   0.200   0.000    0.00
   9.300    4.21  -24.95   -1.34   0.000   0.200   0.000    0.00
   9.350    4.27  -18.32   -2.62   0.000   0.200   0.000    0.00
   9.400    4.17  -26.23   -2.77   0.000   0.200   0.000    0.00
   9.450    3.93  -18.51   -2.52   0.000   0.200   0.000    0.00
   9.500    3.84  -10.55   -2.54   0.000   0.200   0.000    0.00
   9.550    4.81  -17.22   -1.59   0.000   0.200   0.000    0.00
   9.600    4.81  -28.84   -1.49   0.000   0.200   0.000    0.00
   9.650    4.16  -18.86   -1.50   0.000   0.200   0.000    0.00
   9.700    3.90  -20.36   -1.13   0.000   0.200   0.000    0.00
   9.750    4.13  -24.04   -1.96   0.000   0.200   0.000    0.00
   9.800    4.44  -24.39   -1.67   0.000   0.200   0.000    0.00
   9.850    3.85  -24.74   -1.31   0.000   0.200   0.000    0.00
   9.900    3.60  -25.83   -1.53   0.000   0.200   0.000    0.00
   9.950    3.87  -25.53   -1.34   0.000   0.200   0.000    0.00
  10.000    3.45  -16.30   -1.89   0.000   0.200   0.000    0.00
  10.050    3.51  -10.60   -1.15   0.000   0.200   0.000    0.00
  10.100    3.93  -18.10   -0.79   0.000   0.200   0.000    0.00
  10.150    3.43   -9.54   -1.50   0.000   0.200   0.000    0.00
  10.200    3.72    7.06   -0.94   0.000   0.200   0.000    0.00
  10.250    3.28   -8.87   -0.84   0.000   0.200   0.000    0.00
  10.300    3.35  -15.29   -0.43   0.000   0.200   0.000    0.00
  10.350    3.83  -23.18   -0.22   0.000   0.200   0.000    0.00
  10.400    4.05  -25.61   -0.51   0.000   0.200   0.000    0.00
  10.450    4.15  -19.25   -0.82   0.000   0.200   0.000    0.00
  10.500    4.52  -22.21   -0.17   0.000   0.200   0.000    0.00
  10.550    4.05  -21.07   -0.66   0.000   0.200   0.000    0.00
  10.600    3.59  -23.43    0.26   0.000   0.200   0.000    0.00
  10.650    3.38  -14.29    0.36   0.000   0.200   0.000    0.00
  10.700    3.60  -10.62    0.90   0.000   0.200   0.000    0.00
  10.750    3.99  -17.04    0.62   0.000   0.200   0.000    0.00
  10.800    3.65  -24.92    1.14   0.000   0.200   0.000    0.00
  10.850    3.63  -28.13    0.13   0.000   0.200   0.000    0.00
  10.900    3.95  -25.72    0.95   0.000   0.200   0.000    0.00
  10.950    4.64  -23.95    1.54   0.000   0.200   0.000    0.00
  11.000    4.82  -23.92    1.07   0.000   0.200   0.000    0.00
  11.050    4.87  -27.49    0.87   0.000   0.200   0.000    0.00
  11.100    4.92  -15.87    1.63   0.000   0.200   0.000    0.00
  11.150    4.81   -5.34    1.90   0.000   0.200   0.000    0.00
  11.200    4.80   -7.33    1.36   0.000   0.200   0.000    0.00
  11.250    4.87   -7.30    1.47   0.000   0.200   0.000    0.00
  11.300    4.91  -13.33    1.37   0.000   0.200   0.000    0.00
  11.350    4.78  -14.61    0.68   0.000   0.200   0.000    0.00
  11.400    5.06  -17.33    0.33   0.000   0.200   0.000    0.00
  11.450    3.95   -9.32    0.34   0.000   0.200   0.000    0.00
  11.500    4.01   -9.03   -0.06   0.000   0.200   0.000    0.00
  11.550    3.83  -18.63    0.73   0.000   0.200   0.000    0.00
  11.600    3.71  -10.35    0.70   0.000   0.200   0.000    0.00
  11.650    3.77   -0.55    0.34   0.000   0.200   0.000    0.00
  11.700    4.28    5.04   -0.15   0.000   0.200   0.000    0.00
  11.750    3.96    4.79   -0.56   0.000   0.200   0.000    0.00
  11.800    3.96   14.39    0.09   0.000   0.200   0.000    0.00
  11.850    4.28   15.15    0.62   0.000   0.200   0.000    0.00
  11.900    3.90   12.38    1.07   0.000   0.200   0.000    0.00
  11.950    3.62   23.88    0.58   0.000   0.200   0.000    0.00
  12.000    3.54   19.60    0.41   0.000   0.200   0.000    0.00
  12.050    3.66   21.07    0.02   0.000   0.200   0.000    0.00
  12.100    3.43   17.85   -0.34   0.000   0.200   0.000    0.00
  12.150    3.76   22.55    0.47   0.000   0.200   0.000    0.00
  12.200    3.67   16.69    0.86   0.000   0.200   0.000    0.00
  12.250    4.79   24.13    0.71   0.000   0.200   0.000    0.00
  12.300    5.31   11.32    0.47   0.000   0.200   0.000    0.00
  12.350    5.63   22.84    0.16   0.000   0.200   0.000    0.00
  12.400    5.61   27.33    0.46   0.000   0.200   0.000    0.00
  12.450    5.87   25.45    0.62   0.000   0.200   0.000    0.00
  12.500    5.48   29.51    0.63   0.000   0.200   0.000    0.00
  12.550    5.18   33.75    0.60   0.000   0.200   0.000    0.00
  12.600    5.29   34.76    0.19   0.000   0.200   0.000    0.00
  12.650    5.64   27.61    0.08   0.000   0.200   0.000    0.00
  12.700    5.43   23.87    0.39   0.000   0.200   0.000    0.00
  12.750    5.39   23.57    0.94   0.000   0.200   0.000    0.00
  12.800    5.42   22.85    0.39   0.000   0.200   0.000    0.00
  12.850    5.02   27.39    0.26   0.000   0.200   0.000    0.00
  12.900    5.57   29.61   -0.23   0.000   0.200   0.000    0.00
  12.950    5.75   32.81   -0.02   0.000   0.200   0.000    0.00
  13.000    6.25   34.10    0.51   0.000   0.200   0.000    0.00
  13.050    6.00   34.93    0.63   0.000   0.200   0.000    0.00
  13.100    6.03   42.34    0.37   0.000   0.200   0.000    0.00
  13.150    6.17   40.99    1.01   0.000   0.200   0.000    0.00
  13.200    6.25   39.20    2.22   0.000   0.200   0.000    0.00
  13.250    5.94   45.28    0.99   0.000   0.200   0.000    0.00
  13.300    6.48   49.46    1.85   0.000   0.200   0.000    0.00
  13.350    6.43   51.85    1.46   0.000   0.200   0.000    0.00
  13.400    6.74   51.49    0.86   0.000   0.200   0.000    0.00
  13.450    7.14   51.94    0.69   0.000   0.200   0.000    0.00
  13.500    7.47   53.74    0.73   0.000   0.200   0.000    0.00
  13.550    8.19   52.49    0.20   0.000   0.200   0.000    0.00
  13.600    8.08   54.22    0.65   0.000   0.200   0.000    0.00
  13.650    7.88   53.78    1.37   0.000   0.200   0.000    0.00
  13.700    7.36   44.52    1.55   0.000   0.200   0.000    0.00
  13.750    6.61   43.90    1.38   0.000   0.200   0.000    0.00
  13.800    7.06   47.80    0.67   0.000   0.200   0.000    0.00
  13.850    7.95   50.07    0.45   0.000   0.200   0.000    0.00
  13.900    7.61   45.44    1.02   0.000   0.200   0.000    0.00
  13.950    6.86   46.56    1.68   0.000   0.200   0.000    0.00
  14.000    7.73   48.52    2.02   0.000   0.200   0.000    0.00
  14.050    8.27   43.09    2.25   0.000   0.200   0.000    0.00
  14.100    8.72   41.32    2.45   0.000   0.200   0.000    0.00
  14.150    8.69   39.63    2.52   0.000   0.200   0.000    0.00
  14.200    8.56   37.79    2.10   0.000   0.200   0.000    0.00
  14.250    8.03   40.98    2.18   0.000   0.200   0.000    0.00
  14.300    8.46   38.14    1.15   0.000   0.200   0.000    0.00
  14.350    8.94   39.43    0.64   0.000   0.200   0.000    0.00
  14.400    8.29   34.94    0.69   0.000   0.200   0.000    0.00
  14.450    8.35   35.51    1.31   0.000   0.200   0.000    0.00
  14.500    7.84   30.18    0.83   0.000   0.200   0.000    0.00
  14.550    7.71   27.46    0.74   0.000   0.200   0.000    0.00
  14.600    7.67   33.86    0.52   0.000   0.200   0.000    0.00
  14.650    7.92   37.83    0.02   0.000   0.200   0.000    0.00
  14.700    8.26   35.58    1.00   0.000   0.200   0.000    0.00
  14.750    7.88   33.17    0.76   0.000   0.200   0.000    0.00
  14.800    8.01   28.73    0.56   0.000   0.200   0.000    0.00
  14.850    8.51   34.51    0.31   0.000   0.200   0.000    0.00
  14.900    9.50   36.62    0.01   0.000   0.200   0.000    0.00
  14.950    9.49   37.09   -0.28   0.000   0.200   0.000    0.00
  15.000    9.52   37.94   -0.23   0.000   0.200   0.000    0.00
  15.050    9.81   34.13   -0.18   0.000   0.200   0.000    0.00
  15.100    9.21   34.83    0.07   0.000   0.200   0.000    0.00
  15.150   10.16   34.89   -0.66   0.000   0.200   0.000    0.00
  15.200    9.92   34.85   -1.14   0.000   0.200   0.000    0.00
  15.250    9.33   31.20   -1.81   0.000   0.200   0.000    0.00
  15.300    9.10   28.15   -1.68   0.000   0.200   0.000    0.00
  15.350    9.19   25.59   -0.57   0.000   0.200   0.000    0.00
  15.400    9.62   26.43    0.02   0.000   0.200   0.000    0.00
  15.450    9.98   28.95   -0.02   0.000   0.200   0.000    0.00
  15.500   10.14   29.03   -0.36   0.000   0.200   0.000    0.00
  15.550   10.31   25.74    0.04   0.000   0.200   0.000    0.00
  15.600   10.78   24.66    0.43   0.000   0.200   0.000    0.00
  15.650   10.14   27.90   -0.36   0.000   0.200   0.000    0.00
  15.700    9.93   28.04   -1.42   0.000   0.200   0.000    0.00
  15.750    9.19   26.97   -1.38   0.000   0.200   0.000    0.00
  15.800    8.93   24.19   -0.45   0.000   0.200   0.000    0.00
  15.850    9.68   28.70    0.20   0.000   0.200   0.000    0.00
  15.900    9.35   30.75   -0.53   0.000   0.200   0.000    0.00
  15.950    8.78   26.16    0.14   0.000   0.200   0.000    0.00
  16.000    8.82   29.06    0.13   0.000   0.200   0.000    0.00
  16.050    8.67   31.68    0.31   0.000   0.200   0.000    0.00
  16.100    8.13   30.11   -0.09   0.000   0.200   0.000    0.00
  16.150    9.32   31.37   -0.63   0.000   0.200   0.000    0.00
  16.200    9.17   28.83   -1.16   0.000   0.200   0.000    0.00
  16.250    9.89   32.92   -1.41   0.000   0.200   0.000    0.00
  16.300    9.30   32.07   -1.07   0.000   0.200   0.000    0.00
  16.350    9.13   32.96   -0.74   0.000   0.200   0.000    0.00
  16.400    9.66   34.12   -0.33   0.000   0.200   0.000    0.00
  16.450    9.89   33.34   -0.06   0.000   0.200   0.000    0.00
  16.500   10.08   37.79   -0.02   0.000   0.200   0.000    0.00
  16.550    9.72   36.39   -0.29   0.000   0.200   0.000    0.00
  16.600    9.16   35.49   -0.73   0.000   0.200   0.000    0.00
  16.650    8.87   33.12   -0.32   0.000   0.200   0.000    0.00
  16.700    8.67   28.02    0.11   0.000   0.200   0.000    0.00
  16.750    8.57   26.74    0.52   0.000   0.200   0.000    0.00
  16.800    9.02   31.07    0.80   0.000   0.200   0.000    0.00
  16.850    8.81   26.23    0.56   0.000   0.200   0.000    0.00
  16.900    8.60   25.26    1.17   0.000   0.200   0.000    0.00
  16.950    8.65   20.48    0.79   0.000   0.200   0.000    0.00
  17.000    8.15   23.51   -0.37   0.000   0.200   0.000    0.00
  17.050    7.79   25.04   -0.20   0.000   0.200   0.000    0.00
  17.100    7.77   21.84    0.17   0.000   0.200   0.000    0.00
  17.150    8.46   26.18   -0.13   0.000   0.200   0.000    0.00
  17.200    8.23   23.40    0.32   0.000   0.200   0.000    0.00
  17.250    7.42   18.47   -1.02   0.000   0.200   0.000    0.00
  17.300    7.80   23.44   -1.38   0.000   0.200   0.000    0.00
  17.350    7.65   24.60   -1.15   0.000   0.200   0.000    0.00
  17.400    7.33   25.05   -0.79   0.000   0.200   0.000    0.00
  17.450    7.54   25.51   -0.65   0.000   0.200   0.000    0.00
  17.500    7.00   22.64    0.10   0.000   0.200   0.000    0.00
  17.550    6.95   26.20    0.84   0.000   0.200   0.000    0.00
  17.600    6.97   31.54    1.14   0.000   0.200   0.000    0.00
  17.650    7.31   34.04    0.56   0.000   0.200   0.000    0.00
  17.700    6.69   31.89    1.19   0.000   0.200   0.000    0.00
  17.750    6.85   31.26    1.04   0.000   0.200   0.000    0.00
  17.800    7.15   23.29    1.60   0.000   0.200   0.000    0.00
  17.850    7.31   18.86    1.01   0.000   0.200   0.000    0.00
  17.900    7.82   15.04    1.02   0.000   0.200   0.000    0.00
  17.950    7.17   12.64    0.76   0.000   0.200   0.000    0.00
  18.000    6.65    6.08    0.11   0.000   0.200   0.000    0.00
  18.050    7.29    5.20    0.55   0.000   0.200   0.000    0.00
  18.100    7.35    7.36    1.08   0.000   0.200   0.000    0.00
  18.150    7.71   12.79    0.99   0.000   0.200   0.000    0.00
  18.200    8.03   21.11    1.33   0.000   0.200   0.000    0.00
  18.250    8.30   22.07    0.70   0.000   0.200   0.000    0.00
  18.300    8.50   16.99   -0.02   0.000   0.200   0.000    0.00
  18.350    7.61   16.02   -0.36   0.000   0.200   0.000    0.00
  18.400    7.13   16.76   -1.12   0.000   0.200   0.000    0.00
  18.450    7.48   17.04   -2.02   0.000   0.200   0.000    0.00
  18.500    7.31   15.32   -2.14   0.000   0.200   0.000    0.00
  18.550    8.24   15.10   -1.90   0.000   0.200   0.000    0.00
  18.600    8.21   16.06   -1.39   0.000   0.200   0.000    0.00
  18.650    8.62   14.93   -0.52   0.000   0.200   0.000    0.00
  18.700    8.89   19.36   -0.14   0.000   0.200   0.000    0.00
  18.750    8.68   22.11   -0.64   0.000   0.200   0.000    0.00
  18.800    8.37   22.74   -1.01   0.000   0.200   0.000    0.00
  18.850    8.67   19.80   -1.18   0.000   0.200   0.000    0.00
  18.900    9.19   19.87   -1.26   0.000   0.200   0.000    0.00
  18.950    9.07   18.73   -1.12   0.000   0.200   0.000    0.00
  19.000    9.35   17.75   -0.69   0.000   0.200   0.000    0.00
  19.050    8.29   14.61   -1.13   0.000   0.200   0.000    0.00
  19.100    8.76   11.38   -1.39   0.000   0.200   0.000    0.00
  19.150    8.97   12.68   -1.53   0.000   0.200   0.000    0.00
  19.200    8.01   15.62   -0.96   0.000   0.200   0.000    0.00
  19.250    8.17    9.88   -1.37   0.000   0.200   0.000    0.00
  19.300    7.56    6.42   -1.48   0.000   0.200   0.000    0.00
  19.350    7.53    5.77   -1.11   0.000   0.200   0.000    0.00
  19.400    8.22    7.72   -0.78   0.000   0.200   0.000    0.00
  19.450    8.08   11.25    0.01   0.000   0.200   0.000    0.00
  19.500    7.87    5.74    0.15   0.000   0.200   0.000    0.00
  19.550    8.33    1.94    0.55   0.000   0.200   0.000    0.00
  19.600    9.06   -1.14    0.28   0.000   0.200   0.000    0.00
  19.650    9.09   -6.18    1.24   0.000   0.200   0.000    0.00
  19.700    8.53   -3.06    1.62   0.000   0.200   0.000    0.00
  19.750    9.00    2.24    1.87   0.000   0.200   0.000    0.00
  19.800    8.69    1.25    1.04   0.000   0.200   0.000    0.00
  19.850    8.48   -2.46    0.58   0.000   0.200   0.000    0.00
  19.900    8.33   -0.72    0.66   0.000   0.200   0.000    0.00
  19.950    9.25    2.52   -0.06   0.000   0.200   0.000    0.00
  20.000    9.03   -0.59   -0.22   0.000   0.200   0.000    0.00
  20.050    8.73   -2.37   -0.35   0.000   0.200   0.000    0.00
  20.100    9.04   -0.28   -1.13   0.000   0.200   0.000    0.00
  20.150    8.58   -2.02   -1.60   0.000   0.200   0.000    0.00
  20.200    8.93    0.95   -1.35   0.000   0.200   0.000    0.00
  20.250    8.92    2.26   -1.44   0.000   0.200   0.000    0.00
  20.300    8.96   -1.90   -1.42   0.000   0.200   0.000    0.00
  20.350    8.71    0.53   -2.01   0.000   0.200   0.000    0.00
  20.400    8.37   -5.15   -1.91   0.000   0.200   0.000    0.00
  20.450    8.35   -5.46   -2.10   0.000   0.200   0.000    0.00
  20.500    8.22   -0.50   -1.96   0.000   0.200   0.000    0.00
  20.550    8.39   -2.21   -1.39   0.000   0.200   0.000    0.00
  20.600    8.08   -3.08   -1.85   0.000   0.200   0.000    0.00
  20.650    7.59   -0.65   -2.02   0.000   0.200   0.000    0.00
  20.700    7.79    0.69   -3.16   0.000   0.200   0.000    0.00
  20.750    8.20   -0.08   -3.05   0.000   0.200   0.000    0.00
  20.800    8.75   -0.03   -2.88   0.000   0.200   0.000    0.00
  20.850    8.61   -1.25   -2.42   0.000   0.200   0.000    0.00
  20.900    9.46   -2.21   -1.84   0.000   0.200   0.000    0.00
  20.950    9.36   -1.77   -1.04   0.000   0.200   0.000    0.00
  21.000    9.44   -1.17   -0.38   0.000   0.200   0.000    0.00
  21.050    9.69   -0.26   -0.10   0.000   0.200   0.000    0.00
  21.100    9.48   -0.40   -0.31   0.000   0.200   0.000    0.00
  21.150    9.33    0.05   -0.26   0.000   0.200   0.000    0.00
  21.200    9.01   -4.77   -0.44   0.000   0.200   0.000    0.00
  21.250    8.82   -4.88   -0.69   0.000   0.200   0.000    0.00
  21.300    8.71   -2.33   -1.18   0.000   0.200   0.000    0.00
  21.350    8.98    1.30   -1.22   0.000   0.200   0.000    0.00
  21.400    8.95   -0.56   -1.50   0.000   0.200   0.000    0.00
  21.450    9.47   -1.89   -1.29   0.000   0.200   0.000    0.00
  21.500    9.18    1.28   -1.15   0.000   0.200   0.000    0.00
  21.550    9.92    1.24   -0.53   0.000   0.200   0.000    0.00
  21.600   10.19    0.62    0.46   0.000   0.200   0.000    0.00
  21.650   10.11   -3.28   -0.28   0.000   0.200   0.000    0.00
  21.700   10.04   -3.08   -0.41   0.000   0.200   0.000    0.00
  21.750    9.68   -5.11   -0.30   0.000   0.200   0.000    0.00
  21.800    9.82   -4.01   -0.51   0.000   0.200   0.000    0.00
  21.850    9.71   -6.68    0.13   0.000   0.200   0.000    0.00
  21.900   10.40   -7.53   -0.26   0.000   0.200   0.000    0.00
  21.950   10.79   -7.38    0.21   0.000   0.200   0.000    0.00
  22.000   10.86  -11.99    0.43   0.000   0.200   0.000    0.00
  22.050   10.50  -14.08    0.95   0.000   0.200   0.000    0.00
  22.100    9.98  -13.75    1.61   0.000   0.200   0.000    0.00
  22.150   10.54   -7.39    1.28   0.000   0.200   0.000    0.00
  22.200   10.44   -6.44    1.16   0.000   0.200   0.000    0.00
  22.250   10.54   -9.35   -0.27   0.000   0.200   0.000    0.00
  22.300   10.88  -10.92   -0.50   0.000   0.200   0.000    0.00
  22.350   11.43  -11.96   -0.34   0.000   0.200   0.000    0.00