! This hub-height wind-speed file was generated by TurbSim (v1.06.00, 21-Sep-2012) on 16-Jun-2018 at 18:39:36.
!
! The requested statistics for this data were:
!    Mean Total Wind Speed =   23.000 m/s
!    Turbulence Intensity  =   17.433%
!
!   Time  HorSpd  WndDir  VerSpd  HorShr  VerShr  LnVShr  GstSpd
!  (sec)   (m/s)   (deg)   (m/s)     (-)     (-)     (-)   (m/s)
   0.000   24.02   13.31    0.24   0.000   0.200   0.000    0.00
   0.050   24.83   15.57   -0.17   0.000   0.200   0.000    0.00
   0.100   24.88   14.18    1.04   0.000   0.200   0.000    0.00
   0.150   25.00   14.89    0.02   0.000   0.200   0.000    0.00
   0.200   23.47   15.73    0.08   0.000   0.200   0.000    0.00
   0.250   23.73   16.86   -0.61   0.000   0.200   0.000    0.00
   0.300   24.31   13.79   -0.80   0.000   0.200   0.000    0.00
   0.350   25.45   11.74   -0.29   0.000   0.200   0.000    0.00
   0.400   24.48   10.65   -0.95   0.000   0.200   0.000    0.00
   0.450   24.30   11.86   -0.41   0.000   0.200   0.000    0.00
   0.500   24.92    8.12   -1.01   0.000   0.200   0.000    0.00
   0.550   24.96    9.37   -1.44   0.000   0.200   0.000    0.00
   0.600   24.83   12.21   -1.05   0.000   0.200   0.000    0.00
   0.650   24.75   12.07   -1.17   0.000   0.200   0.000    0.00
   0.700   24.96    9.86   -2.19   0.000   0.200   0.000    0.00
   0.750   25.52    9.82   -2.00   0.000   0.200   0.000    0.00
   0.800   26.17   11.25   -1.07   0.000   0.200   0.000    0.00
   0.850   25.89   12.14   -1.32   0.000   0.200   0.000    0.00
   0.900   26.88   13.52   -0.58   0.000   0.200   0.000    0.00
   0.950   25.88   15.45   -2.04   0.000   0.200   0.000    0.00
   1.000   25.50   16.88   -2.60   0.000   0.200   0.000    0.00
   1.050   26.98   14.02   -2.96   0.000   0.200   0.000    0.00
   1.100   26.21    9.81   -3.72   0.000   0.200   0.000    0.00
   1.150   27.93    9.82   -3.35   0.000   0.200   0.000    0.00
   1.200   27.33    8.72   -2.33   0.000   0.200   0.000    0.00
   1.250   27.24    6.33   -0.46   0.000   0.200   0.000    0.00
   1.300   26.99    8.13    0.07   0.000   0.200   0.000    0.00
   1.350   27.32    6.12   -1.19   0.000   0.200   0.000    0.00
   1.400   27.28    8.95   -1.50   0.000   0.200   0.000    0.00
   1.450   25.87   11.66   -0.81   0.000   0.200   0.000    0.00
   1.500   26.58   11.62    0.60   0.000   0.200   0.000    0.00
   1.550   26.48   11.66   -0.09   0.000   0.200   0.000    0.00
   1.600   26.49   13.56    0.99   0.000   0.200   0.000    0.00
   1.650   25.73   12.16    1.39   0.000   0.200   0.000    0.00
   1.700   25.51   15.27    0.32   0.000   0.200   0.000    0.00
   1.750   24.16   12.80    0.62   0.000   0.200   0.000    0.00
   1.800   23.64   13.10   -0.07   0.000   0.200   0.000    0.00
   1.850   23.29   11.07    0.90   0.000   0.200   0.000    0.00
   1.900   21.81    9.78    0.99   0.000   0.200   0.000    0.00
   1.950   20.60   11.72    0.45   0.000   0.200   0.000    0.00
   2.000   20.07   12.49    0.74   0.000   0.200   0.000    0.00
   2.050   19.79   15.74    1.82   0.000   0.200   0.000    0.00
   2.100   21.35    8.08    1.43   0.000   0.200   0.000    0.00
   2.150   21.43    7.81    0.58   0.000   0.200   0.000    0.00
   2.200   21.50    2.51   -0.05   0.000   0.200   0.000    0.00
   2.250   21.32    1.75   -1.74   0.000   0.200   0.000    0.00
   2.300   22.12    0.70   -0.82   0.000   0.200   0.000    0.00
   2.350   21.19   -2.75   -1.08   0.000   0.200   0.000    0.00
   2.400   20.03   -0.10   -1.63   0.000   0.200   0.000    0.00
   2.450   19.77    6.79   -1.18   0.000   0.200   0.000    0.00
   2.500   19.85    7.62    0.62   0.000   0.200   0.000    0.00
   2.550   19.25    5.36   -0.15   0.000   0.200   0.000    0.00
   2.600   18.64    2.58   -2.16   0.000   0.200   0.000    0.00
   2.650   20.25    4.76   -2.44   0.000   0.200   0.000    0.00
   2.700   21.85    3.81   -2.50   0.000   0.200   0.000    0.00
   2.750   22.58    8.09   -2.31   0.000   0.200   0.000    0.00
   2.800   21.91    6.32   -3.46   0.000   0.200   0.000    0.00
   2.850   21.66    6.67   -3.69   0.000   0.200   0.000    0.00
   2.900   22.26    3.31   -4.60   0.000   0.200   0.000    0.00
   2.950   22.83    0.34   -3.94   0.000   0.200   0.000    0.00
   3.000   22.43    2.00   -4.41   0.000   0.200   0.000    0.00
   3.050   21.59   -3.66   -4.66   0.000   0.200   0.000    0.00
   3.100   22.27   -4.84   -3.71   0.000   0.200   0.000    0.00
   3.150   20.78   -3.79   -4.56   0.000   0.200   0.000    0.00
   3.200   19.75   -5.61   -5.41   0.000   0.200   0.000    0.00
   3.250   19.67   -5.08   -6.06   0.000   0.200   0.000    0.00
   3.300   20.00   -3.59   -7.87   0.000   0.200   0.000    0.00
   3.350   20.75   -5.22   -6.07   0.000   0.200   0.000    0.00
   3.400   19.83   -0.79   -4.26   0.000   0.200   0.000    0.00
   3.450   20.68   -1.14   -2.96   0.000   0.200   0.000    0.00
   3.500   20.87   -2.60   -3.03   0.000   0.200   0.000    0.00
   3.550   20.10   -2.76   -3.88   0.000   0.200   0.000    0.00
   3.600   20.13   -4.79   -3.48   0.000   0.200   0.000    0.00
   3.650   21.10   -1.03   -3.47   0.000   0.200   0.000    0.00
   3.700   20.70   -6.07   -1.05   0.000   0.200   0.000    0.00
   3.750   20.71   -8.23   -0.72   0.000   0.200   0.000    0.00
   3.800   19.33   -4.11    1.17   0.000   0.200   0.000    0.00
   3.850   19.54   -5.28   -0.34   0.000   0.200   0.000    0.00
   3.900   19.59   -7.14   -1.36   0.000   0.200   0.000    0.00
   3.950   20.73   -9.61   -1.57   0.000   0.200   0.000    0.00
   4.000   20.26  -14.93   -0.53   0.000   0.200   0.000    0.00
   4.050   20.98  -18.74    0.71   0.000   0.200   0.000    0.00
   4.100   22.10  -20.12   -0.04   0.000   0.200   0.000    0.00
   4.150   21.22  -20.56    0.08   0.000   0.200   0.000    0.00
   4.200   22.12  -16.32    0.34   0.000   0.200   0.000    0.00
   4.250   22.56  -17.00    0.73   0.000   0.200   0.000    0.00
   4.300   22.97  -19.24    0.32   0.000   0.200   0.000    0.00
   4.350   22.66  -19.01    0.34   0.000   0.200   0.000    0.00
   4.400   21.67  -13.18    0.15   0.000   0.200   0.000    0.00
   4.450   20.90  -11.85    0.22   0.000   0.200   0.000    0.00
   4.500   20.72  -11.29   -0.10   0.000   0.200   0.000    0.00
   4.550   21.72  -13.62    0.78   0.000   0.200   0.000    0.00
   4.600   22.91  -12.45    2.55   0.000   0.200   0.000    0.00
   4.650   22.47  -12.76    1.99   0.000   0.200   0.000    0.00
   4.700   21.47  -10.54    2.85   0.000   0.200   0.000    0.00
   4.750   20.98   -5.94    3.15   0.000   0.200   0.000    0.00
   4.800   22.68   -3.84    3.59   0.000   0.200   0.000    0.00
   4.850   22.20   -6.34    3.93   0.000   0.200   0.000    0.00
   4.900   21.74   -4.22    3.85   0.000   0.200   0.000    0.00
   4.950   21.27   -3.45    3.04   0.000   0.200   0.000    0.00
   5.000   20.84   -0.77    3.16   0.000   0.200   0.000    0.00
   5.050   21.43   -2.51    2.62   0.000   0.200   0.000    0.00
   5.100   23.15   -2.12    1.86   0.000   0.200   0.000    0.00
   5.150   23.44   -4.45    1.78   0.000   0.200   0.000    0.00
   5.200   23.31   -4.93    2.83   0.000   0.200   0.000    0.00
   5.250   23.37   -0.33    2.91   0.000   0.200   0.000    0.00
   5.300   23.48    0.53    3.58   0.000   0.200   0.000    0.00
   5.350   23.63    2.46    3.40   0.000   0.200   0.000    0.00
   5.400   24.07    2.55    1.30   0.000   0.200   0.000    0.00
   5.450   24.18    4.79    1.37   0.000   0.200   0.000    0.00
   5.500   23.88    4.10    0.80   0.000   0.200   0.000    0.00
   5.550   25.32    0.49    0.88   0.000   0.200   0.000    0.00
   5.600   25.82   -2.10    0.91   0.000   0.200   0.000    0.00
   5.650   24.69    3.26    0.61   0.000   0.200   0.000    0.00
   5.700   24.36    1.82    0.02   0.000   0.200   0.000    0.00
   5.750   23.09   -2.63    1.60   0.000   0.200   0.000    0.00
   5.800   22.59    1.68    0.53   0.000   0.200   0.000    0.00
   5.850   21.69    4.06    1.54   0.000   0.200   0.000    0.00
   5.900   21.21    1.33    2.67   0.000   0.200   0.000    0.00
   5.950   22.03    0.47    1.63   0.000   0.200   0.000    0.00
   6.000   21.45    4.38    2.30   0.000   0.200   0.000    0.00
   6.050   21.66    4.47    1.80   0.000   0.200   0.000    0.00
   6.100   21.74    6.55    1.77   0.000   0.200   0.000    0.00
   6.150   22.13   12.54    1.60   0.000   0.200   0.000    0.00
   6.200   22.68   11.50    1.89   0.000   0.200   0.000    0.00
   6.250   23.57   10.23    2.04   0.000   0.200   0.000    0.00
   6.300   22.80    6.30    1.05   0.000   0.200   0.000    0.00
   6.350   22.41    4.66    0.50   0.000   0.200   0.000    0.00
   6.400   23.43    3.82    0.87   0.000   0.200   0.000    0.00
   6.450   22.38    4.05    0.59   0.000   0.200   0.000    0.00
   6.500   22.59    6.28    1.25   0.000   0.200   0.000    0.00
   6.550   23.74    8.79    1.27   0.000   0.200   0.000    0.00
   6.600   23.17    9.28    2.16   0.000   0.200   0.000    0.00
   6.650   22.65   11.53    2.14   0.000   0.200   0.000    0.00
   6.700   23.22   10.62    1.49   0.000   0.200   0.000    0.00
   6.750   21.38    7.99    2.05   0.000   0.200   0.000    0.00
   6.800   21.14    3.69    1.70   0.000   0.200   0.000    0.00
   6.850   21.37    5.19    1.41   0.000   0.200   0.000    0.00
   6.900   20.77   11.17    0.96   0.000   0.200   0.000    0.00
   6.950   21.07    7.48    0.57   0.000   0.200   0.000    0.00
   7.000   19.82    7.65    1.23   0.000   0.200   0.000    0.00
   7.050   19.40    8.19    2.19   0.000   0.200   0.000    0.00
   7.100   20.45    7.63    2.19   0.000   0.200   0.000    0.00
   7.150   21.42    5.77    2.96   0.000   0.200   0.000    0.00
   7.200   20.71    3.17    1.97   0.000   0.200   0.000    0.00
   7.250   19.48    1.41    0.33   0.000   0.200   0.000    0.00
   7.300   20.71    1.01    0.13   0.000   0.200   0.000    0.00
   7.350   21.47   -1.73    0.62   0.000   0.200   0.000    0.00
   7.400   20.61   -0.48    0.46   0.000   0.200   0.000    0.00
   7.450   19.05    2.37   -1.47   0.000   0.200   0.000    0.00
   7.500   18.40    4.76   -1.02   0.000   0.200   0.000    0.00
   7.550   19.29    1.17   -1.51   0.000   0.200   0.000    0.00
   7.600   20.52    2.49   -2.36   0.000   0.200   0.000    0.00
   7.650   20.50    1.15   -2.27   0.000   0.200   0.000    0.00
   7.700   20.90   -1.13   -0.70   0.000   0.200   0.000    0.00
   7.750   22.30    1.37   -0.05   0.000   0.200   0.000    0.00
   7.800   21.53    3.48    0.95   0.000   0.200   0.000    0.00
   7.850   20.66    5.94    2.00   0.000   0.200   0.000    0.00
   7.900   21.86    6.99    2.46   0.000   0.200   0.000    0.00
   7.950   20.57    6.94    3.02   0.000   0.200   0.000    0.00
   8.000   19.64    6.83    3.59   0.000   0.200   0.000    0.00
   8.050   20.44    6.50    3.41   0.000   0.200   0.000    0.00
   8.100   20.47    9.00    2.54   0.000   0.200   0.000    0.00
   8.150   21.08    8.94    1.34   0.000   0.200   0.000    0.00
   8.200   20.18    3.47    1.13   0.000   0.200   0.000    0.00
   8.250   20.80    5.62    0.97   0.000   0.200   0.000    0.00
   8.300   20.42    4.71   -1.30   0.000   0.200   0.000    0.00
   8.350   21.27    1.60   -0.64   0.000   0.200   0.000    0.00
   8.400   22.22    4.05   -0.75   0.000   0.200   0.000    0.00
   8.450   22.24    4.33   -1.70   0.000   0.200   0.000    0.00
   8.500   21.73   -0.18   -1.48   0.000   0.200   0.000    0.00
   8.550   22.26   -3.21   -0.34   0.000   0.200   0.000    0.00
   8.600   21.82   -2.52    0.31   0.000   0.200   0.000    0.00
   8.650   22.80    0.36    0.18   0.000   0.200   0.000    0.00
   8.700   23.12    0.53    0.34   0.000   0.200   0.000    0.00
   8.750   22.83    2.54    0.32   0.000   0.200   0.000    0.00
   8.800   22.88    3.28    0.89   0.000   0.200   0.000    0.00
   8.850   22.19    1.44   -0.09   0.000   0.200   0.000    0.00
   8.900   23.35    1.70    0.84   0.000   0.200   0.000    0.00
   8.950   24.13    7.40    0.87   0.000   0.200   0.000    0.00
   9.000   23.67    7.51   -1.66   0.000   0.200   0.000    0.00
   9.050   24.15    6.79   -1.70   0.000   0.200   0.000    0.00
   9.100   23.91    2.63   -0.30   0.000   0.200   0.000    0.00
   9.150   22.62   -0.16   -0.64   0.000   0.200   0.000    0.00
   9.200   21.98   -0.05   -1.32   0.000   0.200   0.000    0.00
   9.250   22.80    2.40   -1.36   0.000   0.200   0.000    0.00
   9.300   23.20    6.09   -0.96   0.000   0.200   0.000    0.00
   9.350   22.99    7.76   -2.47   0.000   0.200   0.000    0.00
   9.400   23.58    3.20   -1.04   0.000   0.200   0.000    0.00
   9.450   24.54    2.46    0.54   0.000   0.200   0.000    0.00
   9.500   25.01    1.96   -0.17   0.000   0.200   0.000    0.00
   9.550   24.92   -1.19   -1.36   0.000   0.200   0.000    0.00
   9.600   23.63   -0.23   -3.04   0.000   0.200   0.000    0.00
   9.650   24.14   -0.80   -3.35   0.000   0.200   0.000    0.00
   9.700   24.22    2.21   -3.22   0.000   0.200   0.000    0.00
   9.750   24.07   -1.11   -2.58   0.000   0.200   0.000    0.00
   9.800   23.28   -0.56   -3.09   0.000   0.200   0.000    0.00
   9.850   23.15   -1.98   -2.45   0.000   0.200   0.000    0.00
   9.900   23.28   -1.59   -2.76   0.000   0.200   0.000    0.00
   9.950   23.87   -1.88   -2.82   0.000   0.200   0.000    0.00
  10.000   23.50    1.12   -2.71   0.000   0.200   0.000    0.00
  10.050   22.34    2.81   -2.10   0.000   0.200   0.000    0.00
  10.100   22.30    4.02   -0.87   0.000   0.200   0.000    0.00
  10.150   21.87    3.56   -0.70   0.000   0.200   0.000    0.00
  10.200   22.15    3.31   -1.31   0.000   0.200   0.000    0.00
  10.250   22.34    0.36    0.70   0.000   0.200   0.000    0.00
  10.300   23.01    1.95    1.55   0.000   0.200   0.000    0.00
  10.350   22.85   -1.62    1.00   0.000   0.200   0.000    0.00
  10.400   23.37   -2.06    1.68   0.000   0.200   0.000    0.00
  10.450   24.43    0.93    2.00   0.000   0.200   0.000    0.00
  10.500   23.92   -0.23    1.77   0.000   0.200   0.000    0.00
  10.550   23.24    0.25    0.71   0.000   0.200   0.000    0.00
  10.600   22.73   -1.47    0.83   0.000   0.200   0.000    0.00
  10.650   22.04   -3.18    1.07   0.000   0.200   0.000    0.00
  10.700   20.95   -1.57    0.14   0.000   0.200   0.000    0.00
  10.750   19.80    1.00   -0.06   0.000   0.200   0.000    0.00
  10.800   19.65    1.71    0.16   0.000   0.200   0.000    0.00
  10.850   21.16    3.61    1.09   0.000   0.200   0.000    0.00
  10.900   21.54    2.35    1.31   0.000   0.200   0.000    0.00
  10.950   21.05   -0.35    1.67   0.000   0.200   0.000    0.00
  11.000   21.45    0.30    1.25   0.000   0.200   0.000    0.00
  11.050   22.85    1.36    1.81   0.000   0.200   0.000    0.00
  11.100   22.44   -1.48    0.88   0.000   0.200   0.000    0.00
  11.150   22.77   -1.89    1.33   0.000   0.200   0.000    0.00
  11.200   23.46   -3.20    1.42   0.000   0.200   0.000    0.00
  11.250   22.50   -1.06    0.82   0.000   0.200   0.000    0.00
  11.300   22.57    2.08   -0.21   0.000   0.200   0.000    0.00
  11.350   22.64   -0.46   -0.70   0.000   0.200   0.000    0.00
  11.400   22.97   -1.59   -1.41   0.000   0.200   0.000    0.00
  11.450   23.23    0.96   -2.25   0.000   0.200   0.000    0.00
  11.500   23.23    5.47   -1.11   0.000   0.200   0.000    0.00
  11.550   24.88    7.13   -2.17   0.000   0.200   0.000    0.00
  11.600   25.50    6.92   -1.65   0.000   0.200   0.000    0.00
  11.650   25.76    5.05   -3.03   0.000   0.200   0.000    0.00
  11.700   26.03    4.54   -2.79   0.000   0.200   0.000    0.00
  11.750   25.95    6.50   -2.67   0.000   0.200   0.000    0.00
  11.800   26.22    4.23   -2.30   0.000   0.200   0.000    0.00
  11.850   26.20    1.16   -3.92   0.000   0.200   0.000    0.00
  11.900   26.87    1.33   -4.05   0.000   0.200   0.000    0.00
  11.950   27.34   -0.94   -3.55   0.000   0.200   0.000    0.00
  12.000   27.32    1.05   -4.34   0.000   0.200   0.000    0.00
  12.050   27.42   -0.67   -3.89   0.000   0.200   0.000    0.00
  12.100   27.29    0.48   -3.24   0.000   0.200   0.000    0.00
  12.150   28.11    3.13   -2.60   0.000   0.200   0.000    0.00
  12.200   27.56    3.10   -1.86   0.000   0.200   0.000    0.00
  12.250   27.05    5.53   -0.99   0.000   0.200   0.000    0.00
  12.300   28.30    5.42   -1.18   0.000   0.200   0.000    0.00
  12.350   26.90    6.18   -2.53   0.000   0.200   0.000    0.00
  12.400   27.17    8.64   -2.39   0.000   0.200   0.000    0.00
  12.450   26.22    7.31   -1.98   0.000   0.200   0.000    0.00
  12.500   25.88    6.96   -2.60   0.000   0.200   0.000    0.00
  12.550   27.30   10.48   -2.23   0.000   0.200   0.000    0.00
  12.600   27.00   13.94   -3.58   0.000   0.200   0.000    0.00
  12.650   28.19   12.34   -4.12   0.000   0.200   0.000    0.00
  12.700   29.36   10.94   -4.51   0.000   0.200   0.000    0.00
  12.750   29.31   11.16   -3.35   0.000   0.200   0.000    0.00
  12.800   27.12    7.43   -3.61   0.000   0.200   0.000    0.00
  12.850   26.59    9.66   -2.85   0.000   0.200   0.000    0.00
  12.900   26.00   11.39   -1.80   0.000   0.200   0.000    0.00
  12.950   26.49   10.33   -1.72   0.000   0.200   0.000    0.00
  13.000   24.74    9.13   -2.79   0.000   0.200   0.000    0.00
  13.050   24.17    7.89   -0.31   0.000   0.200   0.000    0.00
  13.100   22.61    4.00   -0.21   0.000   0.200   0.000    0.00
  13.150   22.98    6.01   -0.29   0.000   0.200   0.000    0.00
  13.200   22.91    9.59   -1.96   0.000   0.200   0.000    0.00
  13.250   23.41   10.84   -2.10   0.000   0.200   0.000    0.00
  13.300   24.21    8.82   -2.29   0.000   0.200   0.000    0.00
  13.350   24.05    9.07   -1.73   0.000   0.200   0.000    0.00
  13.400   23.97    7.94   -2.22   0.000   0.200   0.000    0.00
  13.450   23.94    8.18   -1.68   0.000   0.200   0.000    0.00
  13.500   23.52    9.35   -0.98   0.000   0.200   0.000    0.00
  13.550   23.08   12.63   -0.22   0.000   0.200   0.000    0.00
  13.600   22.87   14.81    0.46   0.000   0.200   0.000    0.00
  13.650   23.52   13.59    0.36   0.000   0.200   0.000    0.00
  13.700   24.93   12.81    1.23   0.000   0.200   0.000    0.00
  13.750   24.61   10.54    1.00   0.000   0.200   0.000    0.00
  13.800   24.45   11.81    0.72   0.000   0.200   0.000    0.00
  13.850   24.96   10.37    0.42   0.000   0.200   0.000    0.00
  13.900   24.37   10.18    1.05   0.000   0.200   0.000    0.00
  13.950   22.40   10.14    1.28   0.000   0.200   0.000    0.00
  14.000   21.85    5.50    1.16   0.000   0.200   0.000    0.00
  14.050   22.38    8.18    0.25   0.000   0.200   0.000    0.00
  14.100   23.99    9.24   -0.85   0.000   0.200   0.000    0.00
  14.150   22.64    7.43   -0.43   0.000   0.200   0.000    0.00
  14.200   23.32    4.95   -1.21   0.000   0.200   0.000    0.00
  14.250   22.96    1.25   -2.77   0.000   0.200   0.000    0.00
  14.300   22.51    2.86   -2.00   0.000   0.200   0.000    0.00
  14.350   22.77    5.04   -2.26   0.000   0.200   0.000    0.00
  14.400   23.11    7.51   -1.90   0.000   0.200   0.000    0.00
  14.450   23.31    6.44   -2.50   0.000   0.200   0.000    0.00
  14.500   22.20    7.20   -3.61   0.000   0.200   0.000    0.00
  14.550   22.71    6.50   -2.42   0.000   0.200   0.000    0.00
  14.600   22.43    5.07   -2.42   0.000   0.200   0.000    0.00
  14.650   21.85    3.69   -1.22   0.000   0.200   0.000    0.00
  14.700   23.29    3.40   -1.48   0.000   0.200   0.000    0.00
  14.750   22.03    4.87   -2.05   0.000   0.200   0.000    0.00
  14.800   21.90    1.36   -2.44   0.000   0.200   0.000    0.00
  14.850   22.19   -0.86   -2.45   0.000   0.200   0.000    0.00
  14.900   22.88    0.20   -3.25   0.000   0.200   0.000    0.00
  14.950   23.47   -0.07   -2.76   0.000   0.200   0.000    0.00
  15.000   23.60    0.40   -4.02   0.000   0.200   0.000    0.00
  15.050   23.86    5.39   -3.92   0.000   0.200   0.000    0.00
  15.100   24.06    5.46   -3.03   0.000   0.200   0.000    0.00
  15.150   25.55    2.06   -2.01   0.000   0.200   0.000    0.00
  15.200   25.60    2.22   -1.88   0.000   0.200   0.000    0.00
  15.250   26.13    0.46   -1.14   0.000   0.200   0.000    0.00
  15.300   26.50    4.63   -1.12   0.000   0.200   0.000    0.00
  15.350   25.43    1.65   -0.92   0.000   0.200   0.000    0.00
  15.400   24.43   -3.00   -1.14   0.000   0.200   0.000    0.00
  15.450   25.01   -4.10    0.83   0.000   0.200   0.000    0.00
  15.500   25.15   -1.72    2.26   0.000   0.200   0.000    0.00
  15.550   25.73   -3.32    2.33   0.000   0.200   0.000    0.00
  15.600   25.29   -6.74    3.58   0.000   0.200   0.000    0.00
  15.650   26.21   -3.91    4.20   0.000   0.200   0.000    0.00
  15.700   28.09   -5.05    2.63   0.000   0.200   0.000    0.00
  15.750   28.31   -3.62    2.80   0.000   0.200   0.000    0.00
  15.800   27.73   -6.21    2.72   0.000   0.200   0.000    0.00
  15.850   27.91   -4.56    2.56   0.000   0.200   0.000    0.00
  15.900   25.32   -6.43    2.38   0.000   0.200   0.000    0.00
  15.950   24.49   -7.12    2.29   0.000   0.200   0.000    0.00
  16.000   25.02   -5.89    2.32   0.000   0.200   0.000    0.00
  16.050   25.26   -5.85    1.47   0.000   0.200   0.000    0.00
  16.100   25.74   -4.54    1.46   0.000   0.200   0.000    0.00
  16.150   26.69   -3.63    1.31   0.000   0.200   0.000    0.00
  16.200   26.95   -1.47    0.46   0.000   0.200   0.000    0.00
  16.250   27.18    1.67    2.72   0.000   0.200   0.000    0.00
  16.300   25.68    2.57    4.35   0.000   0.200   0.000    0.00
  16.350   26.42    2.92    5.45   0.000   0.200   0.000    0.00
  16.400   25.83    2.20    3.92   0.000   0.200   0.000    0.00
  16.450   26.56    2.83    3.99   0.000   0.200   0.000    0.00
  16.500   26.37    5.89    3.52   0.000   0.200   0.000    0.00
  16.550   26.15    3.99    1.30   0.000   0.200   0.000    0.00
  16.600   25.04    4.55    1.54   0.000   0.200   0.000    0.00
  16.650   26.02    5.65    0.61   0.000   0.200   0.000    0.00
  16.700   26.88    0.98    1.83   0.000   0.200   0.000    0.00
  16.750   26.75   -0.53    1.08   0.000   0.200   0.000    0.00
  16.800   26.94    0.39    2.23   0.000   0.200   0.000    0.00
  16.850   27.70    2.10    1.45   0.000   0.200   0.000    0.00
  16.900   28.66    2.01    0.07   0.000   0.200   0.000    0.00
  16.950   28.50    0.30   -0.22   0.000   0.200   0.000    0.00
  17.000   27.58   -1.21    1.01   0.000   0.200   0.000    0.00
  17.050   26.73   -0.21    1.41   0.000   0.200   0.000    0.00
  17.100   27.36    0.37   -0.55   0.000   0.200   0.000    0.00
  17.150   27.17    1.69   -1.36   0.000   0.200   0.000    0.00
  17.200   27.93    3.02   -2.33   0.000   0.200   0.000    0.00
  17.250   27.22    2.07   -2.42   0.000   0.200   0.000    0.00
  17.300   26.95    2.96   -1.85   0.000   0.200   0.000    0.00
  17.350   26.15    2.07   -1.42   0.000   0.200   0.000    0.00
  17.400   25.55    2.02   -1.43   0.000   0.200   0.000    0.00
  17.450   25.03   -2.48   -0.97   0.000   0.200   0.000    0.00
  17.500   25.81   -3.47   -1.08   0.000   0.200   0.000    0.00
  17.550   26.92    1.91   -0.61   0.000   0.200   0.000    0.00
  17.600   27.56    3.01    0.82   0.000   0.200   0.000    0.00
  17.650   27.33    0.64    0.72   0.000   0.200   0.000    0.00
  17.700   27.77   -0.40    0.66   0.000   0.200   0.000    0.00
  17.750   25.97    3.31    0.70   0.000   0.200   0.000    0.00
  17.800   25.45    4.39    0.31   0.000   0.200   0.000    0.00
  17.850   26.12    4.25   -0.55   0.000   0.200   0.000    0.00
  17.900   25.58    2.86   -1.62   0.000   0.200   0.000    0.00
  17.950   25.13    1.97   -0.68   0.000   0.200   0.000    0.00
  18.000   25.25    2.39   -0.29   0.000   0.200   0.000    0.00
  18.050   24.86    2.23   -0.44   0.000   0.200   0.000    0.00
  18.100   25.61    2.58   -1.00   0.000   0.200   0.000    0.00
  18.150   24.79    4.36   -0.83   0.000   0.200   0.000    0.00
  18.200   25.00    2.48   -0.66   0.000   0.200   0.000    0.00
  18.250   25.05    5.79   -0.82   0.000   0.200   0.000    0.00
  18.300   24.52    6.62   -0.01   0.000   0.200   0.000    0.00
  18.350   25.78    4.59    0.21   0.000   0.200   0.000    0.00
  18.400   25.53    5.23    0.61   0.000   0.200   0.000    0.00
  18.450   25.11    3.94    2.18   0.000   0.200   0.000    0.00
  18.500   26.09    5.72    1.51   0.000   0.200   0.000    0.00
  18.550   27.39    3.14    0.44   0.000   0.200   0.000    0.00
  18.600   26.95    5.41    0.72   0.000   0.200   0.000    0.00
  18.650   26.94    3.93    1.51   0.000   0.200   0.000    0.00
  18.700   28.20    0.98    1.26   0.000   0.200   0.000    0.00
  18.750   28.02   -0.61    0.62   0.000   0.200   0.000    0.00
  18.800   26.78    0.02    2.49   0.000   0.200   0.000    0.00
  18.850   26.44    3.28    3.37   0.000   0.200   0.000    0.00
  18.900   27.27    5.94    3.18   0.000   0.200   0.000    0.00
  18.950   27.03    4.11    3.18   0.000   0.200   0.000    0.00
  19.000   26.89    3.96    1.59   0.000   0.200   0.000    0.00
  19.050   26.37    4.17    3.76   0.000   0.200   0.000    0.00
  19.100   27.43    2.94    3.36   0.000   0.200   0.000    0.00
  19.150   27.08    5.62    2.65   0.000   0.200   0.000    0.00
  19.200   27.77    7.93    0.69   0.000   0.200   0.000    0.00
  19.250   27.25    9.03    0.37   0.000   0.200   0.000    0.00
  19.300   27.97   11.66    0.21   0.000   0.200   0.000    0.00
  19.350   29.68   10.95   -0.99   0.000   0.200   0.000    0.00
  19.400   29.16    8.97   -0.86   0.000   0.200   0.000    0.00
  19.450   28.98    8.64   -0.44   0.000   0.200   0.000    0.00
  19.500   27.69   10.46   -1.33   0.000   0.200   0.000    0.00
  19.550   27.04    9.07   -0.78   0.000   0.200   0.000    0.00
  19.600   26.39    8.20   -1.93   0.000   0.200   0.000    0.00
  19.650   26.86    6.23   -3.90   0.000   0.200   0.000    0.00
  19.700   26.21    5.99   -3.01   0.000   0.200   0.000    0.00
  19.750   25.99    4.94   -2.93   0.000   0.200   0.000    0.00
  19.800   27.15    6.70   -3.17   0.000   0.200   0.000    0.00
  19.850   27.37    8.40   -3.82   0.000   0.200   0.000    0.00
  19.900   28.03    7.14   -4.21   0.000   0.200   0.000    0.00
  19.950   29.09    9.83   -3.32   0.000   0.200   0.000    0.00
  20.000   28.19   10.87   -3.02   0.000   0.200   0.000    0.00
  20.050   27.94   10.47   -3.76   0.000   0.200   0.000    0.00
  20.100   27.54   12.11   -3.99   0.000   0.200   0.000    0.00
  20.150   27.29    8.52   -4.41   0.000   0.200   0.000    0.00
  20.200   26.76    9.01   -6.85   0.000   0.200   0.000    0.00
  20.250   27.84    8.27   -5.31   0.000   0.200   0.000    0.00
  20.300   28.09    4.09   -4.73   0.000   0.200   0.000    0.00
  20.350   28.53    4.16   -3.85   0.000   0.200   0.000    0.00
  20.400   30.38    6.62   -4.66   0.000   0.200   0.000    0.00
  20.450   30.66    7.99   -4.26   0.000   0.200   0.000    0.00
  20.500   29.45    9.25   -3.58   0.000   0.200   0.000    0.00
  20.550   29.26    9.50   -2.75   0.000   0.200   0.000    0.00
  20.600   28.81    8.49   -1.64   0.000   0.200   0.000    0.00
  20.650   28.75    9.89   -1.63   0.000   0.200   0.000    0.00
  20.700   28.89   12.75   -3.32   0.000   0.200   0.000    0.00
  20.750   27.55   12.60   -3.09   0.000   0.200   0.000    0.00
  20.800   26.85   10.01   -3.54   0.000   0.200   0.000    0.00
  20.850   26.75    8.88   -2.07   0.000   0.200   0.000    0.00
  20.900   27.81    8.65   -2.49   0.000   0.200   0.000    0.00
  20.950   28.92    7.75   -3.12   0.000   0.200   0.000    0.00
  21.000   28.70   10.37   -3.86   0.000   0.200   0.000    0.00
  21.050   27.68    9.44   -2.71   0.000   0.200   0.000    0.00
  21.100   27.46    7.30   -2.72   0.000   0.200   0.000    0.00
  21.150   27.72    6.54   -3.22   0.000   0.200   0.000    0.00
  21.200   29.29    7.17   -3.61   0.000   0.200   0.000    0.00
  21.250   30.38    7.89   -3.37   0.000   0.200   0.000    0.00
  21.300   30.55    4.72   -4.13   0.000   0.200   0.000    0.00
  21.350   30.25    4.90   -3.66   0.000   0.200   0.000    0.00
  21.400   28.43    7.96   -3.61   0.000   0.200   0.000    0.00
  21.450   29.28    9.17   -5.13   0.000   0.200   0.000    0.00
  21.500   30.67   10.92   -3.45   0.000   0.200   0.000    0.00
  21.550   30.20    9.21   -3.93   0.000   0.200   0.000    0.00
  21.600   31.26   11.39   -2.10   0.000   0.200   0.000    0.00
  21.650   31.51    8.91   -1.70   0.000   0.200   0.000    0.00
  21.700   31.09    7.46   -3.05   0.000   0.200   0.000    0.00
  21.750   31.58    5.46   -3.43   0.000   0.200   0.000    0.00
  21.800   31.69    6.28   -2.89   0.000   0.200   0.000    0.00
  21.850   30.23    5.53   -2.17   0.000   0.200   0.000    0.00
  21.900   29.58    6.01   -4.13   0.000   0.200   0.000    0.00
  21.950   29.08    8.96   -5.66   0.000   0.200   0.000    0.00
  22.000   28.73   10.78   -5.81   0.000   0.200   0.000    0.00
  22.050   28.30   11.61   -4.52   0.000   0.200   0.000    0.00
  22.100   28.40   14.06   -4.55   0.000   0.200   0.000    0.00
  22.150   28.23   15.34   -2.36   0.000   0.200   0.000    0.00
  22.200   27.91   13.98   -2.48   0.000   0.200   0.000    0.00
  22.250   26.94   11.97   -1.82   0.000   0.200   0.000    0.00
  22.300   26.81   11.25   -3.45   0.000   0.200   0.000    0.00
  22.350   26.58   12.16   -4.22   0.000   0.200   0.000    0.00