! This hub-height wind-speed file was generated by TurbSim (v1.06.00, 21-Sep-2012) on 16-Jun-2018 at 18:37:39.
!
! The requested statistics for this data were:
!    Mean Total Wind Speed =   17.000 m/s
!    Turbulence Intensity  =   15.112%
!
!   Time  HorSpd  WndDir  VerSpd  HorShr  VerShr  LnVShr  GstSpd
!  (sec)   (m/s)   (deg)   (m/s)     (-)     (-)     (-)   (m/s)
   0.000   16.74    5.45   -1.99   0.000   0.200   0.000    0.00
   0.050   16.11    8.75   -2.66   0.000   0.200   0.000    0.00
   0.100   16.03    7.83   -2.18   0.000   0.200   0.000    0.00
   0.150   16.24    4.88   -2.41   0.000   0.200   0.000    0.00
   0.200   16.57    5.92   -2.03   0.000   0.200   0.000    0.00
   0.250   17.00    1.21   -2.69   0.000   0.200   0.000    0.00
   0.300   17.33    2.77   -2.77   0.000   0.200   0.000    0.00
   0.350   17.18    3.20   -1.90   0.000   0.200   0.000    0.00
   0.400   17.14    1.87   -1.74   0.000   0.200   0.000    0.00
   0.450   17.25    3.64   -1.49   0.000   0.200   0.000    0.00
   0.500   17.54    5.98   -1.67   0.000   0.200   0.000    0.00
   0.550   17.39    5.89   -1.35   0.000   0.200   0.000    0.00
   0.600   17.98    6.65   -1.34   0.000   0.200   0.000    0.00
   0.650   18.44    2.59   -1.02   0.000   0.200   0.000    0.00
   0.700   18.79   -0.16   -0.89   0.000   0.200   0.000    0.00
   0.750   19.72    1.99   -0.55   0.000   0.200   0.000    0.00
   0.800   19.64    2.09   -0.92   0.000   0.200   0.000    0.00
   0.850   19.32    1.55   -1.28   0.000   0.200   0.000    0.00
   0.900   19.06    2.27   -0.13   0.000   0.200   0.000    0.00
   0.950   18.27    4.16    0.05   0.000   0.200   0.000    0.00
   1.000   18.34    2.64   -0.62   0.000   0.200   0.000    0.00
   1.050   18.24    3.96   -0.50   0.000   0.200   0.000    0.00
   1.100   17.77    3.36    0.22   0.000   0.200   0.000    0.00
   1.150   18.07    5.53    0.38   0.000   0.200   0.000    0.00
   1.200   18.41    7.07    0.08   0.000   0.200   0.000    0.00
   1.250   17.95    9.28   -0.13   0.000   0.200   0.000    0.00
   1.300   17.71    6.96    0.04   0.000   0.200   0.000    0.00
   1.350   17.79    6.72    0.01   0.000   0.200   0.000    0.00
   1.400   17.07    6.37   -0.63   0.000   0.200   0.000    0.00
   1.450   17.13    7.63   -0.87   0.000   0.200   0.000    0.00
   1.500   17.00    6.27   -1.39   0.000   0.200   0.000    0.00
   1.550   17.61    4.74   -2.39   0.000   0.200   0.000    0.00
   1.600   18.05    4.75   -3.07   0.000   0.200   0.000    0.00
   1.650   17.14    6.44   -2.78   0.000   0.200   0.000    0.00
   1.700   17.01    4.83   -2.07   0.000   0.200   0.000    0.00
   1.750   17.70    5.09   -1.61   0.000   0.200   0.000    0.00
   1.800   18.22    4.53   -0.82   0.000   0.200   0.000    0.00
   1.850   18.27    5.35   -0.74   0.000   0.200   0.000    0.00
   1.900   18.48    8.36   -0.32   0.000   0.200   0.000    0.00
   1.950   18.39    7.04   -0.80   0.000   0.200   0.000    0.00
   2.000   18.13    5.72   -0.66   0.000   0.200   0.000    0.00
   2.050   18.21    6.03    0.05   0.000   0.200   0.000    0.00
   2.100   17.55    2.99    0.68   0.000   0.200   0.000    0.00
   2.150   17.18    4.46    1.24   0.000   0.200   0.000    0.00
   2.200   17.60    5.90    2.36   0.000   0.200   0.000    0.00
   2.250   17.15    2.46    2.81   0.000   0.200   0.000    0.00
   2.300   17.23    3.92    2.12   0.000   0.200   0.000    0.00
   2.350   16.92    4.73    1.24   0.000   0.200   0.000    0.00
   2.400   16.58    3.77    1.28   0.000   0.200   0.000    0.00
   2.450   16.46    0.11    0.95   0.000   0.200   0.000    0.00
   2.500   16.57    0.36    0.50   0.000   0.200   0.000    0.00
   2.550   17.16   -0.31    0.07   0.000   0.200   0.000    0.00
   2.600   17.29    0.86    0.38   0.000   0.200   0.000    0.00
   2.650   17.87    1.35    0.76   0.000   0.200   0.000    0.00
   2.700   17.99    0.29    0.71   0.000   0.200   0.000    0.00
   2.750   18.03   -1.50    0.59   0.000   0.200   0.000    0.00
   2.800   16.95   -0.22    1.00   0.000   0.200   0.000    0.00
   2.850   16.97    0.74    0.85   0.000   0.200   0.000    0.00
   2.900   16.47    3.42    0.93   0.000   0.200   0.000    0.00
   2.950   16.00    2.76    1.47   0.000   0.200   0.000    0.00
   3.000   16.36    0.72    1.43   0.000   0.200   0.000    0.00
   3.050   16.16    1.34    1.88   0.000   0.200   0.000    0.00
   3.100   16.12    1.73    1.64   0.000   0.200   0.000    0.00
   3.150   16.97    0.40    3.22   0.000   0.200   0.000    0.00
   3.200   16.51    0.70    2.79   0.000   0.200   0.000    0.00
   3.250   16.16    0.05    3.28   0.000   0.200   0.000    0.00
   3.300   16.08   -1.05    3.97   0.000   0.200   0.000    0.00
   3.350   16.18    1.07    3.97   0.000   0.200   0.000    0.00
   3.400   16.05    2.08    3.47   0.000   0.200   0.000    0.00
   3.450   15.95    2.28    3.19   0.000   0.200   0.000    0.00
   3.500   15.35    1.40    3.11   0.000   0.200   0.000    0.00
   3.550   15.30    0.79    2.96   0.000   0.200   0.000    0.00
   3.600   15.26   -1.24    2.06   0.000   0.200   0.000    0.00
   3.650   16.05   -2.39    1.74   0.000   0.200   0.000    0.00
   3.700   16.58   -3.31    1.89   0.000   0.200   0.000    0.00
   3.750   16.40    0.62    1.79   0.000   0.200   0.000    0.00
   3.800   16.94    1.60    1.22   0.000   0.200   0.000    0.00
   3.850   16.85    0.23    1.90   0.000   0.200   0.000    0.00
   3.900   16.49    1.18    1.52   0.000   0.200   0.000    0.00
   3.950   16.93    1.24    1.66   0.000   0.200   0.000    0.00
   4.000   17.22    1.26    2.02   0.000   0.200   0.000    0.00
   4.050   17.32    2.55    2.02   0.000   0.200   0.000    0.00
   4.100   17.77    0.58    2.08   0.000   0.200   0.000    0.00
   4.150   17.94   -0.76    1.64   0.000   0.200   0.000    0.00
   4.200   17.60   -1.30    2.11   0.000   0.200   0.000    0.00
   4.250   18.25    1.34    2.27   0.000   0.200   0.000    0.00
   4.300   18.11   -0.31    2.51   0.000   0.200   0.000    0.00
   4.350   18.44   -0.22    2.64   0.000   0.200   0.000    0.00
   4.400   18.33   -0.47    2.49   0.000   0.200   0.000    0.00
   4.450   17.81   -1.67    2.08   0.000   0.200   0.000    0.00
   4.500   17.58   -1.62    1.20   0.000   0.200   0.000    0.00
   4.550   17.67   -2.80    0.92   0.000   0.200   0.000    0.00
   4.600   18.00   -3.26   -0.02   0.000   0.200   0.000    0.00
   4.650   17.18   -1.05    1.23   0.000   0.200   0.000    0.00
   4.700   16.24    2.32    0.58   0.000   0.200   0.000    0.00
   4.750   16.53    0.87    1.28   0.000   0.200   0.000    0.00
   4.800   16.37   -0.01    1.06   0.000   0.200   0.000    0.00
   4.850   16.00    2.23    1.06   0.000   0.200   0.000    0.00
   4.900   15.71    0.33    1.88   0.000   0.200   0.000    0.00
   4.950   15.88    0.39    1.73   0.000   0.200   0.000    0.00
   5.000   15.76    2.06    1.64   0.000   0.200   0.000    0.00
   5.050   16.03    3.05    0.75   0.000   0.200   0.000    0.00
   5.100   15.78   -0.23    0.38   0.000   0.200   0.000    0.00
   5.150   15.37    0.36    0.32   0.000   0.200   0.000    0.00
   5.200   16.44    0.66    0.52   0.000   0.200   0.000    0.00
   5.250   15.83    0.88    1.25   0.000   0.200   0.000    0.00
   5.300   15.20    3.49    1.73   0.000   0.200   0.000    0.00
   5.350   15.78    4.66    1.06   0.000   0.200   0.000    0.00
   5.400   16.14    4.41    1.67   0.000   0.200   0.000    0.00
   5.450   15.41    3.46    1.79   0.000   0.200   0.000    0.00
   5.500   15.55    2.28    1.00   0.000   0.200   0.000    0.00
   5.550   15.31    1.84    1.40   0.000   0.200   0.000    0.00
   5.600   15.30    5.42    1.43   0.000   0.200   0.000    0.00
   5.650   15.64    7.80    1.59   0.000   0.200   0.000    0.00
   5.700   15.77    8.65    1.70   0.000   0.200   0.000    0.00
   5.750   15.89   10.71    1.41   0.000   0.200   0.000    0.00
   5.800   16.59   16.35    0.36   0.000   0.200   0.000    0.00
   5.850   16.62   13.41    0.04   0.000   0.200   0.000    0.00
   5.900   16.26   13.53    0.29   0.000   0.200   0.000    0.00
   5.950   16.24   14.59   -0.57   0.000   0.200   0.000    0.00
   6.000   15.59   14.56   -0.47   0.000   0.200   0.000    0.00
   6.050   15.76   13.92   -0.83   0.000   0.200   0.000    0.00
   6.100   15.43   13.89   -0.65   0.000   0.200   0.000    0.00
   6.150   15.48   12.27   -0.50   0.000   0.200   0.000    0.00
   6.200   15.31   12.07    0.51   0.000   0.200   0.000    0.00
   6.250   15.44   11.83   -0.03   0.000   0.200   0.000    0.00
   6.300   15.12   12.36   -0.31   0.000   0.200   0.000    0.00
   6.350   15.04   10.13   -0.40   0.000   0.200   0.000    0.00
   6.400   14.66   13.19   -0.60   0.000   0.200   0.000    0.00
   6.450   14.37   13.59   -0.53   0.000   0.200   0.000    0.00
   6.500   14.17   10.36   -0.79   0.000   0.200   0.000    0.00
   6.550   13.05    9.99   -1.68   0.000   0.200   0.000    0.00
   6.600   13.04    9.81   -0.70   0.000   0.200   0.000    0.00
   6.650   13.64    9.02   -0.94   0.000   0.200   0.000    0.00
   6.700   13.87    9.17    0.05   0.000   0.200   0.000    0.00
   6.750   14.34    9.39    0.91   0.000   0.200   0.000    0.00
   6.800   13.97   11.28    0.76   0.000   0.200   0.000    0.00
   6.850   15.13   14.84    1.06   0.000   0.200   0.000    0.00
   6.900   14.75   15.25   -0.06   0.000   0.200   0.000    0.00
   6.950   15.55   18.42   -0.43   0.000   0.200   0.000    0.00
   7.000   15.23   20.57   -0.49   0.000   0.200   0.000    0.00
   7.050   15.78   22.21   -0.38   0.000   0.200   0.000    0.00
   7.100   16.10   20.58   -1.18   0.000   0.200   0.000    0.00
   7.150   16.06   18.91   -0.67   0.000   0.200   0.000    0.00
   7.200   16.14   19.01    0.27   0.000   0.200   0.000    0.00
   7.250   14.96   16.87    0.08   0.000   0.200   0.000    0.00
   7.300   15.47   14.06    0.59   0.000   0.200   0.000    0.00
   7.350   16.12   13.77    0.85   0.000   0.200   0.000    0.00
   7.400   16.19   15.58    0.61   0.000   0.200   0.000    0.00
   7.450   16.80   15.58    1.02   0.000   0.200   0.000    0.00
   7.500   16.74   16.68    0.75   0.000   0.200   0.000    0.00
   7.550   16.44   14.01    1.65   0.000   0.200   0.000    0.00
   7.600   16.12   10.80    2.02   0.000   0.200   0.000    0.00
   7.650   16.22   14.40    2.14   0.000   0.200   0.000    0.00
   7.700   15.18   11.49    2.75   0.000   0.200   0.000    0.00
   7.750   15.02   11.31    2.59   0.000   0.200   0.000    0.00
   7.800   14.96    8.80    2.13   0.000   0.200   0.000    0.00
   7.850   15.39    8.44    1.90   0.000   0.200   0.000    0.00
   7.900   16.05    8.70    1.88   0.000   0.200   0.000    0.00
   7.950   15.74    7.40    1.67   0.000   0.200   0.000    0.00
   8.000   16.13    6.76    2.17   0.000   0.200   0.000    0.00
   8.050   16.16    5.34    1.43   0.000   0.200   0.000    0.00
   8.100   16.40    7.17    0.61   0.000   0.200   0.000    0.00
   8.150   16.39    6.33    1.65   0.000   0.200   0.000    0.00
   8.200   15.50    4.55    1.89   0.000   0.200   0.000    0.00
   8.250   15.99    3.69    1.23   0.000   0.200   0.000    0.00
   8.300   16.96    3.73    0.53   0.000   0.200   0.000    0.00
   8.350   16.42    5.26    0.14   0.000   0.200   0.000    0.00
   8.400   16.20    2.04    0.63   0.000   0.200   0.000    0.00
   8.450   16.83    5.42    1.01   0.000   0.200   0.000    0.00
   8.500   16.73    5.09    1.78   0.000   0.200   0.000    0.00
   8.550   16.25    3.71    2.34   0.000   0.200   0.000    0.00
   8.600   16.56    4.88    1.28   0.000   0.200   0.000    0.00
   8.650   16.79    3.79    1.70   0.000   0.200   0.000    0.00
   8.700   16.91    2.48    1.92   0.000   0.200   0.000    0.00
   8.750   16.36    1.57    2.10   0.000   0.200   0.000    0.00
   8.800   16.41    1.42    1.62   0.000   0.200   0.000    0.00
   8.850   16.24    1.20    1.35   0.000   0.200   0.000    0.00
   8.900   16.68   -0.04    1.35   0.000   0.200   0.000    0.00
   8.950   16.59    1.97    0.75   0.000   0.200   0.000    0.00
   9.000   16.05    1.77    1.33   0.000   0.200   0.000    0.00
   9.050   16.42    4.75    1.70   0.000   0.200   0.000    0.00
   9.100   16.56    1.74    1.45   0.000   0.200   0.000    0.00
   9.150   16.27    1.57    1.59   0.000   0.200   0.000    0.00
   9.200   16.38    2.07    2.16   0.000   0.200   0.000    0.00
   9.250   16.64    0.68    1.36   0.000   0.200   0.000    0.00
   9.300   16.68    0.71    1.47   0.000   0.200   0.000    0.00
   9.350   16.18   -1.01    1.14   0.000   0.200   0.000    0.00
   9.400   16.02    1.86    1.31   0.000   0.200   0.000    0.00
   9.450   15.68    3.78    1.65   0.000   0.200   0.000    0.00
   9.500   16.21    4.48    1.14   0.000   0.200   0.000    0.00
   9.550   16.17    3.65    1.54   0.000   0.200   0.000    0.00
   9.600   16.84    2.72    1.78   0.000   0.200   0.000    0.00
   9.650   16.43    3.50    1.92   0.000   0.200   0.000    0.00
   9.700   15.60    4.03    1.19   0.000   0.200   0.000    0.00
   9.750   15.56    3.39   -0.19   0.000   0.200   0.000    0.00
   9.800   14.74    4.19   -0.18   0.000   0.200   0.000    0.00
   9.850   14.29    3.71   -0.52   0.000   0.200   0.000    0.00
   9.900   14.25    5.11   -0.02   0.000   0.200   0.000    0.00
   9.950   14.00    8.26   -0.11   0.000   0.200   0.000    0.00
  10.000   13.99   11.51    0.20   0.000   0.200   0.000    0.00
  10.050   13.54   12.24   -0.31   0.000   0.200   0.000    0.00
  10.100   14.02   14.06   -0.37   0.000   0.200   0.000    0.00
  10.150   14.65   10.36    0.33   0.000   0.200   0.000    0.00
  10.200   15.05    7.44    0.19   0.000   0.200   0.000    0.00
  10.250   14.68    5.65    1.09   0.000   0.200   0.000    0.00
  10.300   14.89    5.09    1.60   0.000   0.200   0.000    0.00
  10.350   14.78    4.68    0.88   0.000   0.200   0.000    0.00
  10.400   15.24    4.35    0.32   0.000   0.200   0.000    0.00
  10.450   15.08    5.86    1.63   0.000   0.200   0.000    0.00
  10.500   15.45    9.27    1.44   0.000   0.200   0.000    0.00
  10.550   15.40    8.41    1.35   0.000   0.200   0.000    0.00
  10.600   15.30    9.34    1.83   0.000   0.200   0.000    0.00
  10.650   14.95   11.07    2.27   0.000   0.200   0.000    0.00
  10.700   14.80   12.88    2.12   0.000   0.200   0.000    0.00
  10.750   15.13    9.10    1.71   0.000   0.200   0.000    0.00
  10.800   15.00   12.41    1.36   0.000   0.200   0.000    0.00
  10.850   14.53   12.52    0.57   0.000   0.200   0.000    0.00
  10.900   14.71   11.29    0.68   0.000   0.200   0.000    0.00
  10.950   15.38   13.25    0.83   0.000   0.200   0.000    0.00
  11.000   14.23   11.26    0.99   0.000   0.200   0.000    0.00
  11.050   14.51   11.61    0.31   0.000   0.200   0.000    0.00
  11.100   15.02   14.99    0.22   0.000   0.200   0.000    0.00
  11.150   14.61   13.98    0.44   0.000   0.200   0.000    0.00
  11.200   14.13   13.42    0.84   0.000   0.200   0.000    0.00
  11.250   14.09   15.20    0.78   0.000   0.200   0.000    0.00
  11.300   14.61   17.01    0.75   0.000   0.200   0.000    0.00
  11.350   14.34   17.32    1.07   0.000   0.200   0.000    0.00
  11.400   14.07   17.05    0.75   0.000   0.200   0.000    0.00
  11.450   13.53   16.21    0.13   0.000   0.200   0.000    0.00
  11.500   13.52   18.57   -0.11   0.000   0.200   0.000    0.00
  11.550   14.79   17.56    0.15   0.000   0.200   0.000    0.00
  11.600   14.07   14.09    0.24   0.000   0.200   0.000    0.00
  11.650   14.76   13.80   -0.38   0.000   0.200   0.000    0.00
  11.700   14.35   11.79   -0.43   0.000   0.200   0.000    0.00
  11.750   14.32   12.15   -0.48   0.000   0.200   0.000    0.00
  11.800   14.63   11.02   -0.80   0.000   0.200   0.000    0.00
  11.850   14.43    8.07   -0.92   0.000   0.200   0.000    0.00
  11.900   14.82   10.64   -0.22   0.000   0.200   0.000    0.00
  11.950   14.06    7.71   -0.24   0.000   0.200   0.000    0.00
  12.000   14.32    6.85   -0.40   0.000   0.200   0.000    0.00
  12.050   13.83    7.74    0.09   0.000   0.200   0.000    0.00
  12.100   13.76    7.06    0.51   0.000   0.200   0.000    0.00
  12.150   13.86    3.00    1.03   0.000   0.200   0.000    0.00
  12.200   14.00    2.75    0.68   0.000   0.200   0.000    0.00
  12.250   14.09    3.34    0.59   0.000   0.200   0.000    0.00
  12.300   14.22    2.61    0.58   0.000   0.200   0.000    0.00
  12.350   14.54    3.36    0.30   0.000   0.200   0.000    0.00
  12.400   14.78    0.48    1.09   0.000   0.200   0.000    0.00
  12.450   14.30    0.78    1.22   0.000   0.200   0.000    0.00
  12.500   13.57    1.84    1.28   0.000   0.200   0.000    0.00
  12.550   12.74    7.14    1.17   0.000   0.200   0.000    0.00
  12.600   12.82    8.38    1.51   0.000   0.200   0.000    0.00
  12.650   12.29   12.64    1.89   0.000   0.200   0.000    0.00
  12.700   12.21   10.87    1.16   0.000   0.200   0.000    0.00
  12.750   12.65   10.31    1.04   0.000   0.200   0.000    0.00
  12.800   12.47   11.46    1.02   0.000   0.200   0.000    0.00
  12.850   12.32   11.70    0.68   0.000   0.200   0.000    0.00
  12.900   12.02    8.00    0.53   0.000   0.200   0.000    0.00
  12.950   11.98    8.59    0.42   0.000   0.200   0.000    0.00
  13.000   11.95    8.99    0.14   0.000   0.200   0.000    0.00
  13.050   10.90    7.64    1.14   0.000   0.200   0.000    0.00
  13.100   11.58    5.44   -0.31   0.000   0.200   0.000    0.00
  13.150   11.26    3.09   -0.16   0.000   0.200   0.000    0.00
  13.200   11.99    5.65   -0.20   0.000   0.200   0.000    0.00
  13.250   12.60    3.31   -0.54   0.000   0.200   0.000    0.00
  13.300   13.65    4.78   -0.91   0.000   0.200   0.000    0.00
  13.350   12.79    2.49   -0.53   0.000   0.200   0.000    0.00
  13.400   12.99    3.23   -1.25   0.000   0.200   0.000    0.00
  13.450   12.77    2.90   -1.36   0.000   0.200   0.000    0.00
  13.500   12.94    3.86   -1.48   0.000   0.200   0.000    0.00
  13.550   13.22    2.93   -2.17   0.000   0.200   0.000    0.00
  13.600   13.08    0.70   -2.55   0.000   0.200   0.000    0.00
  13.650   12.27    0.94   -1.70   0.000   0.200   0.000    0.00
  13.700   12.23    1.95   -1.19   0.000   0.200   0.000    0.00
  13.750   11.69    5.24   -1.29   0.000   0.200   0.000    0.00
  13.800   11.25    6.09   -0.92   0.000   0.200   0.000    0.00
  13.850   11.45    1.65   -1.27   0.000   0.200   0.000    0.00
  13.900   12.35    1.19   -1.62   0.000   0.200   0.000    0.00
  13.950   12.46   -3.31   -2.19   0.000   0.200   0.000    0.00
  14.000   12.10   -1.99   -2.25   0.000   0.200   0.000    0.00
  14.050   11.88   -1.26   -1.76   0.000   0.200   0.000    0.00
  14.100   11.98   -4.47   -2.24   0.000   0.200   0.000    0.00
  14.150   11.74   -3.91   -2.03   0.000   0.200   0.000    0.00
  14.200   12.07   -1.29   -1.80   0.000   0.200   0.000    0.00
  14.250   12.86    0.28   -2.09   0.000   0.200   0.000    0.00
  14.300   12.42    0.46   -2.00   0.000   0.200   0.000    0.00
  14.350   13.37    0.93   -0.76   0.000   0.200   0.000    0.00
  14.400   13.42    1.83   -0.28   0.000   0.200   0.000    0.00
  14.450   12.80    0.44    0.41   0.000   0.200   0.000    0.00
  14.500   13.36   -0.82   -0.21   0.000   0.200   0.000    0.00
  14.550   12.97    1.67   -1.19   0.000   0.200   0.000    0.00
  14.600   12.57    4.49   -0.67   0.000   0.200   0.000    0.00
  14.650   11.67    9.50   -0.96   0.000   0.200   0.000    0.00
  14.700   11.90   10.93   -1.30   0.000   0.200   0.000    0.00
  14.750   11.79    7.58   -1.41   0.000   0.200   0.000    0.00
  14.800   11.77    6.13   -1.87   0.000   0.200   0.000    0.00
  14.850   11.80    3.14   -2.13   0.000   0.200   0.000    0.00
  14.900   12.63    3.73   -1.18   0.000   0.200   0.000    0.00
  14.950   12.30    4.22   -1.36   0.000   0.200   0.000    0.00
  15.000   13.22    6.71   -0.75   0.000   0.200   0.000    0.00
  15.050   13.37    9.43    0.52   0.000   0.200   0.000    0.00
  15.100   13.75   10.43    1.05   0.000   0.200   0.000    0.00
  15.150   14.83    8.93    1.61   0.000   0.200   0.000    0.00
  15.200   13.79    8.56    1.67   0.000   0.200   0.000    0.00
  15.250   13.65    7.72    1.40   0.000   0.200   0.000    0.00
  15.300   13.56    7.73    0.64   0.000   0.200   0.000    0.00
  15.350   13.85    7.59    0.34   0.000   0.200   0.000    0.00
  15.400   13.67    7.40   -0.19   0.000   0.200   0.000    0.00
  15.450   13.84    9.26   -0.20   0.000   0.200   0.000    0.00
  15.500   14.05   11.29    0.63   0.000   0.200   0.000    0.00
  15.550   13.84   11.06    0.30   0.000   0.200   0.000    0.00
  15.600   13.92    7.16   -0.59   0.000   0.200   0.000    0.00
  15.650   14.32    5.82    0.10   0.000   0.200   0.000    0.00
  15.700   14.89    6.83    0.17   0.000   0.200   0.000    0.00
  15.750   15.52    5.76   -0.31   0.000   0.200   0.000    0.00
  15.800   15.42    0.64   -0.56   0.000   0.200   0.000    0.00
  15.850   15.86    2.24   -0.08   0.000   0.200   0.000    0.00
  15.900   16.30    2.23    0.08   0.000   0.200   0.000    0.00
  15.950   16.94   -0.11    0.35   0.000   0.200   0.000    0.00
  16.000   16.18    0.62   -0.13   0.000   0.200   0.000    0.00
  16.050   16.42   -0.27   -0.06   0.000   0.200   0.000    0.00
  16.100   16.78   -4.80   -0.69   0.000   0.200   0.000    0.00
  16.150   17.78   -4.51   -0.39   0.000   0.200   0.000    0.00
  16.200   18.00   -8.72   -0.19   0.000   0.200   0.000    0.00
  16.250   16.92   -7.41    1.03   0.000   0.200   0.000    0.00
  16.300   16.25   -3.98    0.80   0.000   0.200   0.000    0.00
  16.350   16.31   -0.56   -0.19   0.000   0.200   0.000    0.00
  16.400   17.19   -1.00   -0.50   0.000   0.200   0.000    0.00
  16.450   16.83   -5.31    0.21   0.000   0.200   0.000    0.00
  16.500   16.93   -3.54   -0.31   0.000   0.200   0.000    0.00
  16.550   16.43   -1.79   -1.00   0.000   0.200   0.000    0.00
  16.600   16.55    0.39   -0.39   0.000   0.200   0.000    0.00
  16.650   17.17    0.02   -0.26   0.000   0.200   0.000    0.00
  16.700   16.91   -0.12   -0.72   0.000   0.200   0.000    0.00
  16.750   17.30   -0.05   -1.24   0.000   0.200   0.000    0.00
  16.800   17.45    1.44   -0.73   0.000   0.200   0.000    0.00
  16.850   16.38    2.14    0.11   0.000   0.200   0.000    0.00
  16.900   16.06    0.70    0.71   0.000   0.200   0.000    0.00
  16.950   15.69    2.11   -0.45   0.000   0.200   0.000    0.00
  17.000   15.77   -0.30   -1.43   0.000   0.200   0.000    0.00
  17.050   15.93    3.77   -1.20   0.000   0.200   0.000    0.00
  17.100   15.88    0.91   -0.70   0.000   0.200   0.000    0.00
  17.150   15.81   -1.41   -0.74   0.000   0.200   0.000    0.00
  17.200   15.93   -0.60   -0.98   0.000   0.200   0.000    0.00
  17.250   16.04   -2.87   -1.04   0.000   0.200   0.000    0.00
  17.300   15.57   -5.18   -0.22   0.000   0.200   0.000    0.00
  17.350   15.70   -5.27    0.00   0.000   0.200   0.000    0.00
  17.400   15.34   -4.60    0.20   0.000   0.200   0.000    0.00
  17.450   15.78   -4.98    0.22   0.000   0.200   0.000    0.00
  17.500   15.49   -6.29    0.32   0.000   0.200   0.000    0.00
  17.550   14.83   -5.32    0.47   0.000   0.200   0.000    0.00
  17.600   15.26   -4.41   -0.12   0.000   0.200   0.000    0.00
  17.650   15.35   -5.87    0.48   0.000   0.200   0.000    0.00
  17.700   15.66   -5.28    0.21   0.000   0.200   0.000    0.00
  17.750   15.83   -6.67    0.20   0.000   0.200   0.000    0.00
  17.800   15.83   -9.11    0.00   0.000   0.200   0.000    0.00
  17.850   15.20  -12.06    0.23   0.000   0.200   0.000    0.00
  17.900   15.10  -11.07   -0.40   0.000   0.200   0.000    0.00
  17.950   14.70   -8.60    0.41   0.000   0.200   0.000    0.00
  18.000   14.84   -8.46    0.13   0.000   0.200   0.000    0.00
  18.050   14.45   -9.51    0.52   0.000   0.200   0.000    0.00
  18.100   13.90   -6.89    0.51   0.000   0.200   0.000    0.00
  18.150   13.35   -5.67   -0.40   0.000   0.200   0.000    0.00
  18.200   13.70   -7.00   -0.54   0.000   0.200   0.000    0.00
  18.250   14.08   -2.54   -1.13   0.000   0.200   0.000    0.00
  18.300   13.94   -4.12   -1.13   0.000   0.200   0.000    0.00
  18.350   14.65   -1.97   -1.69   0.000   0.200   0.000    0.00
  18.400   14.39   -1.33   -1.43   0.000   0.200   0.000    0.00
  18.450   14.42    1.02   -1.23   0.000   0.200   0.000    0.00
  18.500   14.44   -1.09   -0.77   0.000   0.200   0.000    0.00
  18.550   14.55    2.12   -0.72   0.000   0.200   0.000    0.00
  18.600   13.94   -0.26    0.29   0.000   0.200   0.000    0.00
  18.650   14.22   -4.12    0.47   0.000   0.200   0.000    0.00
  18.700   14.67   -4.00   -0.32   0.000   0.200   0.000    0.00
  18.750   14.93   -5.79    0.46   0.000   0.200   0.000    0.00
  18.800   14.33   -5.43    1.31   0.000   0.200   0.000    0.00
  18.850   14.14   -7.95    1.32   0.000   0.200   0.000    0.00
  18.900   14.80   -7.86    0.71   0.000   0.200   0.000    0.00
  18.950   15.23   -6.97    0.33   0.000   0.200   0.000    0.00
  19.000   15.49   -5.97    0.33   0.000   0.200   0.000    0.00
  19.050   15.13   -7.30    0.00   0.000   0.200   0.000    0.00
  19.100   14.75   -7.05    0.11   0.000   0.200   0.000    0.00
  19.150   14.99   -3.51    0.02   0.000   0.200   0.000    0.00
  19.200   14.16   -8.57    0.84   0.000   0.200   0.000    0.00
  19.250   14.31   -6.80    0.62   0.000   0.200   0.000    0.00
  19.300   14.58   -6.13    0.39   0.000   0.200   0.000    0.00
  19.350   15.02   -4.96    0.38   0.000   0.200   0.000    0.00
  19.400   15.22   -4.43    1.03   0.000   0.200   0.000    0.00
  19.450   15.05   -4.66    1.52   0.000   0.200   0.000    0.00
  19.500   14.69   -3.82    0.69   0.000   0.200   0.000    0.00
  19.550   14.74   -3.87   -0.18   0.000   0.200   0.000    0.00
  19.600   14.48   -2.99   -0.10   0.000   0.200   0.000    0.00
  19.650   14.11   -1.95    0.04   0.000   0.200   0.000    0.00
  19.700   14.52   -4.69    0.57   0.000   0.200   0.000    0.00
  19.750   14.02   -4.28   -0.06   0.000   0.200   0.000    0.00
  19.800   14.34   -7.00   -0.11   0.000   0.200   0.000    0.00
  19.850   14.08   -5.96   -0.11   0.000   0.200   0.000    0.00
  19.900   13.95   -5.24    0.21   0.000   0.200   0.000    0.00
  19.950   13.78   -9.37    0.09   0.000   0.200   0.000    0.00
  20.000   13.82   -9.64    0.29   0.000   0.200   0.000    0.00
  20.050   12.86  -11.35   -0.41   0.000   0.200   0.000    0.00
  20.100   12.47  -11.97   -0.96   0.000   0.200   0.000    0.00
  20.150   12.71  -13.94   -0.73   0.000   0.200   0.000    0.00
  20.200   13.40  -12.14   -1.34   0.000   0.200   0.000    0.00
  20.250   13.58  -13.21   -0.95   0.000   0.200   0.000    0.00
  20.300   13.64  -13.31   -0.81   0.000   0.200   0.000    0.00
  20.350   14.06  -13.50   -1.36   0.000   0.200   0.000    0.00
  20.400   14.36  -12.50   -0.99   0.000   0.200   0.000    0.00
  20.450   14.31   -8.25    0.06   0.000   0.200   0.000    0.00
  20.500   14.54   -7.92   -1.20   0.000   0.200   0.000    0.00
  20.550   14.77   -8.50   -0.65   0.000   0.200   0.000    0.00
  20.600   15.65   -9.64   -1.23   0.000   0.200   0.000    0.00
  20.650   14.70   -9.74   -1.11   0.000   0.200   0.000    0.00
  20.700   14.56  -10.36   -0.25   0.000   0.200   0.000    0.00
  20.750   14.31   -7.00   -0.60   0.000   0.200   0.000    0.00
  20.800   14.78   -7.73   -0.99   0.000   0.200   0.000    0.00
  20.850   14.51   -7.88   -1.15   0.000   0.200   0.000    0.00
  20.900   15.20   -9.69   -1.49   0.000   0.200   0.000    0.00
  20.950   14.07   -8.38   -2.12   0.000   0.200   0.000    0.00
  21.000   13.73   -6.50   -1.38   0.000   0.200   0.000    0.00
  21.050   13.09   -6.87   -0.93   0.000   0.200   0.000    0.00
  21.100   13.58   -6.57   -0.49   0.000   0.200   0.000    0.00
  21.150   13.88   -8.38   -0.42   0.000   0.200   0.000    0.00
  21.200   13.49  -11.84   -1.03   0.000   0.200   0.000    0.00
  21.250   14.10  -14.47   -0.31   0.000   0.200   0.000    0.00
  21.300   14.02  -12.10   -0.78   0.000   0.200   0.000    0.00
  21.350   14.75  -10.60   -0.24   0.000   0.200   0.000    0.00
  21.400   15.23   -8.00   -0.39   0.000   0.200   0.000    0.00
  21.450   14.78   -6.07   -0.95   0.000   0.200   0.000    0.00
  21.500   15.22   -5.84   -1.58   0.000   0.200   0.000    0.00
  21.550   15.97   -8.76   -1.21   0.000   0.200   0.000    0.00
  21.600   15.66   -7.63   -1.10   0.000   0.200   0.000    0.00
  21.650   16.06   -3.04   -1.37   0.000   0.200   0.000    0.00
  21.700   15.47   -2.28   -1.25   0.000   0.200   0.000    0.00
  21.750   14.35   -2.43   -0.18   0.000   0.200   0.000    0.00
  21.800   14.35   -0.54    0.62   0.000   0.200   0.000    0.00
  21.850   15.26   -1.96    0.80   0.000   0.200   0.000    0.00
  21.900   15.41   -3.29    0.88   0.000   0.200   0.000    0.00
  21.950   14.66    0.33    0.61   0.000   0.200   0.000    0.00
  22.000   14.71    4.61    0.49   0.000   0.200   0.000    0.00
  22.050   15.14    1.24    0.34   0.000   0.200   0.000    0.00
  22.100   15.29   -1.51    0.28   0.000   0.200   0.000    0.00
  22.150   15.63   -1.69    0.69   0.000   0.200   0.000    0.00
  22.200   16.21   -1.17    0.02   0.000   0.200   0.000    0.00
  22.250   16.86    3.02    0.28   0.000   0.200   0.000    0.00
  22.300   16.54    1.99    0.81   0.000   0.200   0.000    0.00
  22.350   16.16    1.55    0.80   0.000   0.200   0.000    0.00