! This hub-height wind-speed file was generated by TurbSim (v1.06.00, 21-Sep-2012) on 16-Jun-2018 at 18:37:01.
!
! The requested statistics for this data were:
!    Mean Total Wind Speed =    7.000 m/s
!    Turbulence Intensity  =   38.848%
!
!   Time  HorSpd  WndDir  VerSpd  HorShr  VerShr  LnVShr  GstSpd
!  (sec)   (m/s)   (deg)   (m/s)     (-)     (-)     (-)   (m/s)
   0.000    4.90  -45.94   -0.24   0.000   0.200   0.000    0.00
   0.050    5.04  -52.10    0.06   0.000   0.200   0.000    0.00
   0.100    4.22  -46.48    0.74   0.000   0.200   0.000    0.00
   0.150    4.52  -47.54    0.42   0.000   0.200   0.000    0.00
   0.200    4.52  -49.59   -0.10   0.000   0.200   0.000    0.00
   0.250    4.33  -50.88    0.24   0.000   0.200   0.000    0.00
   0.300    4.50  -46.28    0.25   0.000   0.200   0.000    0.00
   0.350    4.51  -40.91    0.63   0.000   0.200   0.000    0.00
   0.400    4.10  -43.52    0.48   0.000   0.200   0.000    0.00
   0.450    3.75  -48.48    0.86   0.000   0.200   0.000    0.00
   0.500    3.71  -54.99    0.70   0.000   0.200   0.000    0.00
   0.550    4.16  -45.20    0.40   0.000   0.200   0.000    0.00
   0.600    4.27  -45.33   -0.30   0.000   0.200   0.000    0.00
   0.650    3.96  -42.00   -0.22   0.000   0.200   0.000    0.00
   0.700    4.55  -42.17    0.02   0.000   0.200   0.000    0.00
   0.750    5.02  -36.12   -0.29   0.000   0.200   0.000    0.00
   0.800    4.68  -33.49   -0.18   0.000   0.200   0.000    0.00
   0.850    5.03  -34.92    0.47   0.000   0.200   0.000    0.00
   0.900    5.02  -33.14    0.56   0.000   0.200   0.000    0.00
   0.950    5.34  -33.98   -0.06   0.000   0.200   0.000    0.00
   1.000    5.03  -29.25   -0.79   0.000   0.200   0.000    0.00
   1.050    5.21  -32.38   -0.30   0.000   0.200   0.000    0.00
   1.100    5.02  -33.42   -0.11   0.000   0.200   0.000    0.00
   1.150    4.63  -35.26    0.41   0.000   0.200   0.000    0.00
   1.200    4.74  -32.47    0.27   0.000   0.200   0.000    0.00
   1.250    5.15  -38.84    1.31   0.000   0.200   0.000    0.00
   1.300    5.29  -44.82    1.67   0.000   0.200   0.000    0.00
   1.350    5.02  -42.02    1.88   0.000   0.200   0.000    0.00
   1.400    4.95  -44.10    2.02   0.000   0.200   0.000    0.00
   1.450    4.61  -47.16    2.21   0.000   0.200   0.000    0.00
   1.500    4.59  -45.13    2.47   0.000   0.200   0.000    0.00
   1.550    5.17  -44.44    2.88   0.000   0.200   0.000    0.00
   1.600    4.58  -37.56    3.04   0.000   0.200   0.000    0.00
   1.650    3.72  -38.16    2.40   0.000   0.200   0.000    0.00
   1.700    3.92  -41.02    1.83   0.000   0.200   0.000    0.00
   1.750    3.84  -31.32    1.76   0.000   0.200   0.000    0.00
   1.800    4.05  -32.14    1.06   0.000   0.200   0.000    0.00
   1.850    4.11  -31.48    0.78   0.000   0.200   0.000    0.00
   1.900    4.07  -34.79    1.02   0.000   0.200   0.000    0.00
   1.950    3.36  -30.75    1.56   0.000   0.200   0.000    0.00
   2.000    3.16  -38.40    1.37   0.000   0.200   0.000    0.00
   2.050    3.35  -30.72    0.99   0.000   0.200   0.000    0.00
   2.100    3.34  -19.08    0.81   0.000   0.200   0.000    0.00
   2.150    3.18   -9.63    0.91   0.000   0.200   0.000    0.00
   2.200    3.47   -6.69    0.66   0.000   0.200   0.000    0.00
   2.250    3.12  -16.72    1.17   0.000   0.200   0.000    0.00
   2.300    3.60  -11.85    0.90   0.000   0.200   0.000    0.00
   2.350    4.02  -10.21    0.11   0.000   0.200   0.000    0.00
   2.400    4.19  -10.83    0.44   0.000   0.200   0.000    0.00
   2.450    3.68  -11.86    0.90   0.000   0.200   0.000    0.00
   2.500    3.05   -9.50    1.78   0.000   0.200   0.000    0.00
   2.550    3.30  -11.43    1.58   0.000   0.200   0.000    0.00
   2.600    2.59   -6.84    1.69   0.000   0.200   0.000    0.00
   2.650    3.22  -13.85    1.58   0.000   0.200   0.000    0.00
   2.700    2.86   -4.63    1.49   0.000   0.200   0.000    0.00
   2.750    2.96   -5.81    1.94   0.000   0.200   0.000    0.00
   2.800    2.74   -7.67    2.51   0.000   0.200   0.000    0.00
   2.850    2.39   -2.90    2.82   0.000   0.200   0.000    0.00
   2.900    2.50   -1.96    3.57   0.000   0.200   0.000    0.00
   2.950    2.36   -4.89    3.06   0.000   0.200   0.000    0.00
   3.000    2.38   -4.19    3.28   0.000   0.200   0.000    0.00
   3.050    2.31   -3.31    2.84   0.000   0.200   0.000    0.00
   3.100    2.77   -1.03    2.61   0.000   0.200   0.000    0.00
   3.150    3.29   -7.71    3.05   0.000   0.200   0.000    0.00
   3.200    2.82  -12.79    2.63   0.000   0.200   0.000    0.00
   3.250    2.35   -9.90    1.99   0.000   0.200   0.000    0.00
   3.300    2.41  -25.61    1.70   0.000   0.200   0.000    0.00
   3.350    2.13  -30.79    1.01   0.000   0.200   0.000    0.00
   3.400    1.46  -20.06    0.33   0.000   0.200   0.000    0.00
   3.450    0.93   -3.74    0.30   0.000   0.200   0.000    0.00
   3.500    0.90  -34.74    1.07   0.000   0.200   0.000    0.00
   3.550    1.61  -39.28    1.08   0.000   0.200   0.000    0.00
   3.600    1.62  -38.65    1.12   0.000   0.200   0.000    0.00
   3.650    1.18   -6.26    0.95   0.000   0.200   0.000    0.00
   3.700    1.61   -7.37    0.82   0.000   0.200   0.000    0.00
   3.750    1.92   -4.29    0.58   0.000   0.200   0.000    0.00
   3.800    1.88    4.34    0.37   0.000   0.200   0.000    0.00
   3.850    2.20    2.09    0.43   0.000   0.200   0.000    0.00
   3.900    2.21   -7.72   -0.10   0.000   0.200   0.000    0.00
   3.950    1.64  -18.28    0.25   0.000   0.200   0.000    0.00
   4.000    1.18  -21.29    0.29   0.000   0.200   0.000    0.00
   4.050    2.21  -29.46   -0.19   0.000   0.200   0.000    0.00
   4.100    2.22  -17.58   -0.52   0.000   0.200   0.000    0.00
   4.150    1.94  -16.84   -0.55   0.000   0.200   0.000    0.00
   4.200    1.72  -34.69    0.35   0.000   0.200   0.000    0.00
   4.250    2.29  -25.90    0.48   0.000   0.200   0.000    0.00
   4.300    2.05  -15.78    0.77   0.000   0.200   0.000    0.00
   4.350    1.91  -10.76    0.26   0.000   0.200   0.000    0.00
   4.400    2.17   -0.60    0.11   0.000   0.200   0.000    0.00
   4.450    2.41    7.35   -0.60   0.000   0.200   0.000    0.00
   4.500    2.13    2.71   -0.14   0.000   0.200   0.000    0.00
   4.550    1.98   -1.05    0.62   0.000   0.200   0.000    0.00
   4.600    2.00   -6.18    0.42   0.000   0.200   0.000    0.00
   4.650    1.87    8.29    0.40   0.000   0.200   0.000    0.00
   4.700    2.27   20.43    0.82   0.000   0.200   0.000    0.00
   4.750    2.37   29.40    1.07   0.000   0.200   0.000    0.00
   4.800    2.61   19.68    1.35   0.000   0.200   0.000    0.00
   4.850    2.55   14.19    1.74   0.000   0.200   0.000    0.00
   4.900    2.61   12.44    1.34   0.000   0.200   0.000    0.00
   4.950    2.26    3.74    1.59   0.000   0.200   0.000    0.00
   5.000    1.97   -4.84    1.78   0.000   0.200   0.000    0.00
   5.050    3.10  -16.28    0.98   0.000   0.200   0.000    0.00
   5.100    2.85  -22.88    1.11   0.000   0.200   0.000    0.00
   5.150    2.85  -20.11    0.91   0.000   0.200   0.000    0.00
   5.200    2.66  -37.42   -0.16   0.000   0.200   0.000    0.00
   5.250    2.81  -40.98    0.01   0.000   0.200   0.000    0.00
   5.300    2.50  -31.26    0.56   0.000   0.200   0.000    0.00
   5.350    2.63  -25.48    0.92   0.000   0.200   0.000    0.00
   5.400    2.95  -31.56    0.45   0.000   0.200   0.000    0.00
   5.450    2.91  -41.96    0.25   0.000   0.200   0.000    0.00
   5.500    2.95  -45.48    1.12   0.000   0.200   0.000    0.00
   5.550    2.62  -27.54    0.95   0.000   0.200   0.000    0.00
   5.600    3.05  -33.33    0.97   0.000   0.200   0.000    0.00
   5.650    3.05  -29.93    1.42   0.000   0.200   0.000    0.00
   5.700    3.38  -23.21    2.42   0.000   0.200   0.000    0.00
   5.750    3.86  -20.43    2.17   0.000   0.200   0.000    0.00
   5.800    3.21  -30.23    2.57   0.000   0.200   0.000    0.00
   5.850    3.19  -41.26    1.83   0.000   0.200   0.000    0.00
   5.900    3.23  -37.07    1.77   0.000   0.200   0.000    0.00
   5.950    3.29  -40.84    2.46   0.000   0.200   0.000    0.00
   6.000    3.19  -37.76    2.14   0.000   0.200   0.000    0.00
   6.050    2.49  -40.41    1.94   0.000   0.200   0.000    0.00
   6.100    2.63  -48.40    2.74   0.000   0.200   0.000    0.00
   6.150    2.94  -35.11    2.27   0.000   0.200   0.000    0.00
   6.200    3.12  -43.33    1.72   0.000   0.200   0.000    0.00
   6.250    2.32  -43.30    1.81   0.000   0.200   0.000    0.00
   6.300    2.75  -49.93    2.00   0.000   0.200   0.000    0.00
   6.350    2.49  -48.77    1.35   0.000   0.200   0.000    0.00
   6.400    2.19  -67.14    1.05   0.000   0.200   0.000    0.00
   6.450    1.79  -51.03    0.90   0.000   0.200   0.000    0.00
   6.500    1.75  -55.77   -0.26   0.000   0.200   0.000    0.00
   6.550    1.73  -52.32   -0.97   0.000   0.200   0.000    0.00
   6.600    1.51  -52.34   -0.59   0.000   0.200   0.000    0.00
   6.650    0.97  -49.81    0.20   0.000   0.200   0.000    0.00
   6.700    1.48  -47.27   -0.30   0.000   0.200   0.000    0.00
   6.750    1.75  -51.67   -0.48   0.000   0.200   0.000    0.00
   6.800    1.90  -49.16    0.87   0.000   0.200   0.000    0.00
   6.850    2.40  -60.27    0.61   0.000   0.200   0.000    0.00
   6.900    2.26  -62.35    0.51   0.000   0.200   0.000    0.00
   6.950    2.46  -61.33    0.33   0.000   0.200   0.000    0.00
   7.000    2.48  -57.46    0.35   0.000   0.200   0.000    0.00
   7.050    1.36  -50.18    0.89   0.000   0.200   0.000    0.00
   7.100    1.56  -53.06    0.68   0.000   0.200   0.000    0.00
   7.150    1.77  -75.69   -0.14   0.000   0.200   0.000    0.00
   7.200    2.40  -77.60   -0.62   0.000   0.200   0.000    0.00
   7.250    2.26  -70.29   -0.26   0.000   0.200   0.000    0.00
   7.300    2.16  -69.95   -0.41   0.000   0.200   0.000    0.00
   7.350    2.08  -50.46   -0.35   0.000   0.200   0.000    0.00
   7.400    1.77  -62.28   -0.41   0.000   0.200   0.000    0.00
   7.450    1.70  -82.83    0.09   0.000   0.200   0.000    0.00
   7.500    1.59 -105.77    0.08   0.000   0.200   0.000    0.00
   7.550    1.55  -99.44    0.30   0.000   0.200   0.000    0.00
   7.600    1.48  -98.43    0.05   0.000   0.200   0.000    0.00
   7.650    1.28 -104.32   -0.74   0.000   0.200   0.000    0.00
   7.700    1.33  -86.32   -0.48   0.000   0.200   0.000    0.00
   7.750    1.57  -83.00   -0.80   0.000   0.200   0.000    0.00
   7.800    1.34 -109.40   -0.45   0.000   0.200   0.000    0.00
   7.850    1.22 -116.35    0.24   0.000   0.200   0.000    0.00
   7.900    1.52 -118.27    0.38   0.000   0.200   0.000    0.00
   7.950    1.47 -141.73    0.98   0.000   0.200   0.000    0.00
   8.000    1.68 -148.30    0.08   0.000   0.200   0.000    0.00
   8.050    1.53 -133.73   -0.24   0.000   0.200   0.000    0.00
   8.100    1.34 -135.50   -0.59   0.000   0.200   0.000    0.00
   8.150    2.08 -103.79   -1.06   0.000   0.200   0.000    0.00
   8.200    1.50 -106.74   -1.33   0.000   0.200   0.000    0.00
   8.250    1.56  -99.88   -1.07   0.000   0.200   0.000    0.00
   8.300    1.39 -104.87   -0.85   0.000   0.200   0.000    0.00
   8.350    1.45 -104.21   -1.10   0.000   0.200   0.000    0.00
   8.400    2.13  -82.90   -0.58   0.000   0.200   0.000    0.00
   8.450    2.06  -98.19   -0.79   0.000   0.200   0.000    0.00
   8.500    2.35  -96.76   -0.15   0.000   0.200   0.000    0.00
   8.550    2.29  -83.52    0.73   0.000   0.200   0.000    0.00
   8.600    1.72  -67.11    0.60   0.000   0.200   0.000    0.00
   8.650    1.66  -65.28   -0.69   0.000   0.200   0.000    0.00
   8.700    1.64  -45.16   -0.96   0.000   0.200   0.000    0.00
   8.750    1.36  -57.70   -0.02   0.000   0.200   0.000    0.00
   8.800    1.74  -50.33   -0.48   0.000   0.200   0.000    0.00
   8.850    1.72  -45.87   -0.04   0.000   0.200   0.000    0.00
   8.900    1.77  -25.55   -0.89   0.000   0.200   0.000    0.00
   8.950    1.63  -13.16   -0.85   0.000   0.200   0.000    0.00
   9.000    1.88  -22.72   -1.40   0.000   0.200   0.000    0.00
   9.050    1.98  -10.73   -1.65   0.000   0.200   0.000    0.00
   9.100    1.70   -2.35   -1.39   0.000   0.200   0.000    0.00
   9.150    1.68  -17.96   -1.11   0.000   0.200   0.000    0.00
   9.200    2.27  -33.42   -1.87   0.000   0.200   0.000    0.00
   9.250    2.37  -38.68   -1.28   0.000   0.200   0.000    0.00
   9.300    2.61  -38.83   -1.22   0.000   0.200   0.000    0.00
   9.350    2.56  -29.38   -2.34   0.000   0.200   0.000    0.00
   9.400    2.59  -40.80   -2.47   0.000   0.200   0.000    0.00
   9.450    2.27  -31.10   -2.25   0.000   0.200   0.000    0.00
   9.500    2.10  -19.44   -2.26   0.000   0.200   0.000    0.00
   9.550    3.00  -26.21   -1.43   0.000   0.200   0.000    0.00
   9.600    3.16  -41.73   -1.35   0.000   0.200   0.000    0.00
   9.650    2.46  -30.69   -1.35   0.000   0.200   0.000    0.00
   9.700    2.25  -34.14   -1.03   0.000   0.200   0.000    0.00
   9.750    2.49  -38.27   -1.76   0.000   0.200   0.000    0.00
   9.800    2.76  -37.40   -1.50   0.000   0.200   0.000    0.00
   9.850    2.27  -40.85   -1.18   0.000   0.200   0.000    0.00
   9.900    2.07  -44.22   -1.38   0.000   0.200   0.000    0.00
   9.950    2.28  -42.00   -1.20   0.000   0.200   0.000    0.00
  10.000    1.79  -30.90   -1.68   0.000   0.200   0.000    0.00
  10.050    1.77  -21.11   -1.04   0.000   0.200   0.000    0.00
  10.100    2.21  -30.94   -0.72   0.000   0.200   0.000    0.00
  10.150    1.68  -19.72   -1.34   0.000   0.200   0.000    0.00
  10.200    1.87   10.03   -0.85   0.000   0.200   0.000    0.00
  10.250    1.53  -19.45   -0.75   0.000   0.200   0.000    0.00
  10.300    1.66  -30.27   -0.39   0.000   0.200   0.000    0.00
  10.350    2.17  -39.41   -0.21   0.000   0.200   0.000    0.00
  10.400    2.39  -41.64   -0.46   0.000   0.200   0.000    0.00
  10.450    2.37  -31.96   -0.72   0.000   0.200   0.000    0.00
  10.500    2.72  -34.69   -0.15   0.000   0.200   0.000    0.00
  10.550    2.30  -35.23   -0.57   0.000   0.200   0.000    0.00
  10.600    1.95  -41.85    0.23   0.000   0.200   0.000    0.00
  10.650    1.64  -28.70    0.32   0.000   0.200   0.000    0.00
  10.700    1.78  -20.95    0.80   0.000   0.200   0.000    0.00
  10.750    2.18  -29.54    0.55   0.000   0.200   0.000    0.00
  10.800    2.01  -43.79    1.01   0.000   0.200   0.000    0.00
  10.850    2.06  -48.64    0.14   0.000   0.200   0.000    0.00
  10.900    2.27  -42.86    0.85   0.000   0.200   0.000    0.00
  10.950    2.82  -36.83    1.37   0.000   0.200   0.000    0.00
  11.000    2.96  -36.13    0.96   0.000   0.200   0.000    0.00
  11.050    3.06  -40.78    0.79   0.000   0.200   0.000    0.00
  11.100    2.94  -24.39    1.45   0.000   0.200   0.000    0.00
  11.150    2.76   -8.99    1.69   0.000   0.200   0.000    0.00
  11.200    2.76  -11.96    1.22   0.000   0.200   0.000    0.00
  11.250    2.82  -11.77    1.32   0.000   0.200   0.000    0.00
  11.300    2.90  -20.55    1.23   0.000   0.200   0.000    0.00
  11.350    2.81  -22.65    0.63   0.000   0.200   0.000    0.00
  11.400    3.08  -25.81    0.32   0.000   0.200   0.000    0.00
  11.450    2.05  -16.56    0.33   0.000   0.200   0.000    0.00
  11.500    2.11  -15.80   -0.02   0.000   0.200   0.000    0.00
  11.550    2.06  -31.89    0.67   0.000   0.200   0.000    0.00
  11.600    1.87  -18.72    0.65   0.000   0.200   0.000    0.00
  11.650    1.88   -1.49    0.33   0.000   0.200   0.000    0.00
  11.700    2.34    7.67   -0.10   0.000   0.200   0.000    0.00
  11.750    2.07    7.67   -0.46   0.000   0.200   0.000    0.00
  11.800    2.14   23.33    0.11   0.000   0.200   0.000    0.00
  11.850    2.43   23.45    0.58   0.000   0.200   0.000    0.00
  11.900    2.09   20.28    0.97   0.000   0.200   0.000    0.00
  11.950    1.99   39.71    0.55   0.000   0.200   0.000    0.00
  12.000    1.87   33.46    0.40   0.000   0.200   0.000    0.00
  12.050    2.01   34.85    0.06   0.000   0.200   0.000    0.00
  12.100    1.78   31.11   -0.25   0.000   0.200   0.000    0.00
  12.150    2.14   36.25    0.45   0.000   0.200   0.000    0.00
  12.200    2.00   27.68    0.79   0.000   0.200   0.000    0.00
  12.250    3.06   34.21    0.66   0.000   0.200   0.000    0.00
  12.300    3.40   15.82    0.45   0.000   0.200   0.000    0.00
  12.350    3.78   30.50    0.18   0.000   0.200   0.000    0.00
  12.400    3.84   36.15    0.44   0.000   0.200   0.000    0.00
  12.450    4.05   33.27    0.58   0.000   0.200   0.000    0.00
  12.500    3.78   38.98    0.60   0.000   0.200   0.000    0.00
  12.550    3.59   44.87    0.57   0.000   0.200   0.000    0.00
  12.600    3.71   45.70    0.21   0.000   0.200   0.000    0.00
  12.650    3.92   36.07    0.12   0.000   0.200   0.000    0.00
  12.700    3.71   31.74    0.39   0.000   0.200   0.000    0.00
  12.750    3.68   31.37    0.87   0.000   0.200   0.000    0.00
  12.800    3.70   30.36    0.38   0.000   0.200   0.000    0.00
  12.850    3.43   36.84    0.27   0.000   0.200   0.000    0.00
  12.900    3.94   38.34   -0.15   0.000   0.200   0.000    0.00
  12.950    4.14   41.81    0.04   0.000   0.200   0.000    0.00
  13.000    4.60   42.42    0.50   0.000   0.200   0.000    0.00
  13.050    4.40   43.76    0.60   0.000   0.200   0.000    0.00
  13.100    4.54   52.20    0.38   0.000   0.200   0.000    0.00
  13.150    4.65   50.37    0.93   0.000   0.200   0.000    0.00
  13.200    4.70   48.15    1.99   0.000   0.200   0.000    0.00
  13.250    4.53   55.56    0.93   0.000   0.200   0.000    0.00
  13.300    5.07   59.16    1.67   0.000   0.200   0.000    0.00
  13.350    5.07   61.83    1.33   0.000   0.200   0.000    0.00
  13.400    5.34   60.91    0.81   0.000   0.200   0.000    0.00
  13.450    5.69   60.80    0.66   0.000   0.200   0.000    0.00
  13.500    6.00   62.30    0.70   0.000   0.200   0.000    0.00
  13.550    6.60   60.16    0.23   0.000   0.200   0.000    0.00
  13.600    6.54   62.11    0.63   0.000   0.200   0.000    0.00
  13.650    6.36   61.84    1.25   0.000   0.200   0.000    0.00
  13.700    5.77   52.43    1.42   0.000   0.200   0.000    0.00
  13.750    5.11   52.76    1.27   0.000   0.200   0.000    0.00
  13.800    5.57   56.40    0.65   0.000   0.200   0.000    0.00
  13.850    6.36   57.82    0.46   0.000   0.200   0.000    0.00
  13.900    6.00   53.18    0.95   0.000   0.200   0.000    0.00
  13.950    5.38   55.36    1.53   0.000   0.200   0.000    0.00
  14.000    6.16   56.42    1.82   0.000   0.200   0.000    0.00
  14.050    6.53   50.00    2.03   0.000   0.200   0.000    0.00
  14.100    6.90   47.70    2.20   0.000   0.200   0.000    0.00
  14.150    6.84   45.89    2.26   0.000   0.200   0.000    0.00
  14.200    6.70   43.98    1.90   0.000   0.200   0.000    0.00
  14.250    6.29   47.98    1.96   0.000   0.200   0.000    0.00
  14.300    6.62   44.48    1.06   0.000   0.200   0.000    0.00
  14.350    7.05   45.54    0.62   0.000   0.200   0.000    0.00
  14.400    6.42   41.12    0.66   0.000   0.200   0.000    0.00
  14.450    6.48   41.71    1.19   0.000   0.200   0.000    0.00
  14.500    5.97   36.17    0.77   0.000   0.200   0.000    0.00
  14.550    5.82   33.21    0.69   0.000   0.200   0.000    0.00
  14.600    5.87   40.52    0.50   0.000   0.200   0.000    0.00
  14.650    6.14   44.73    0.06   0.000   0.200   0.000    0.00
  14.700    6.40   41.93    0.90   0.000   0.200   0.000    0.00
  14.750    6.03   39.59    0.70   0.000   0.200   0.000    0.00
  14.800    6.09   34.46    0.52   0.000   0.200   0.000    0.00
  14.850    6.59   40.57    0.29   0.000   0.200   0.000    0.00
  14.900    7.48   42.20    0.03   0.000   0.200   0.000    0.00
  14.950    7.48   42.73   -0.23   0.000   0.200   0.000    0.00
  15.000    7.51   43.65   -0.18   0.000   0.200   0.000    0.00
  15.050    7.71   39.29   -0.14   0.000   0.200   0.000    0.00
  15.100    7.21   40.43    0.07   0.000   0.200   0.000    0.00
  15.150    8.03   39.92   -0.57   0.000   0.200   0.000    0.00
  15.200    7.82   40.01   -0.99   0.000   0.200   0.000    0.00
  15.250    7.26   36.31   -1.57   0.000   0.200   0.000    0.00
  15.300    7.02   33.04   -1.47   0.000   0.200   0.000    0.00
  15.350    7.07   30.11   -0.49   0.000   0.200   0.000    0.00
  15.400    7.46   30.81    0.02   0.000   0.200   0.000    0.00
  15.450    7.80   33.42   -0.02   0.000   0.200   0.000    0.00
  15.500    7.95   33.42   -0.32   0.000   0.200   0.000    0.00
  15.550    8.05   29.68    0.03   0.000   0.200   0.000    0.00
  15.600    8.45   28.29    0.37   0.000   0.200   0.000    0.00
  15.650    7.94   32.13   -0.32   0.000   0.200   0.000    0.00
  15.700    7.76   32.36   -1.24   0.000   0.200   0.000    0.00
  15.750    7.11   31.53   -1.20   0.000   0.200   0.000    0.00
  15.800    6.86   28.53   -0.40   0.000   0.200   0.000    0.00
  15.850    7.56   33.16    0.16   0.000   0.200   0.000    0.00
  15.900    7.30   35.59   -0.47   0.000   0.200   0.000    0.00
  15.950    6.76   30.78    0.12   0.000   0.200   0.000    0.00
  16.000    6.83   33.98    0.10   0.000   0.200   0.000    0.00
  16.050    6.74   36.96    0.26   0.000   0.200   0.000    0.00
  16.100    6.25   35.57   -0.09   0.000   0.200   0.000    0.00
  16.150    7.30   36.16   -0.56   0.000   0.200   0.000    0.00
  16.200    7.14   33.40   -1.02   0.000   0.200   0.000    0.00
  16.250    7.82   37.50   -1.24   0.000   0.200   0.000    0.00
  16.300    7.31   36.85   -0.94   0.000   0.200   0.000    0.00
  16.350    7.17   37.89   -0.66   0.000   0.200   0.000    0.00
  16.400    7.65   38.84   -0.30   0.000   0.200   0.000    0.00
  16.450    7.85   37.83   -0.06   0.000   0.200   0.000    0.00
  16.500    8.07   42.54   -0.02   0.000   0.200   0.000    0.00
  16.550    7.74   41.17   -0.26   0.000   0.200   0.000    0.00
  16.600    7.25   40.46   -0.64   0.000   0.200   0.000    0.00
  16.650    6.98   37.99   -0.28   0.000   0.200   0.000    0.00
  16.700    6.75   32.43    0.09   0.000   0.200   0.000    0.00
  16.750    6.66   31.01    0.45   0.000   0.200   0.000    0.00
  16.800    7.10   35.53    0.69   0.000   0.200   0.000    0.00
  16.850    6.87   30.24    0.48   0.000   0.200   0.000    0.00
  16.900    6.68   29.23    1.01   0.000   0.200   0.000    0.00
  16.950    6.68   23.83    0.68   0.000   0.200   0.000    0.00
  17.000    6.28   27.44   -0.33   0.000   0.200   0.000    0.00
  17.050    5.98   29.33   -0.18   0.000   0.200   0.000    0.00
  17.100    5.94   25.70    0.14   0.000   0.200   0.000    0.00
  17.150    6.58   30.17   -0.12   0.000   0.200   0.000    0.00
  17.200    6.36   27.15    0.27   0.000   0.200   0.000    0.00
  17.250    5.62   21.97   -0.90   0.000   0.200   0.000    0.00
  17.300    5.99   27.37   -1.21   0.000   0.200   0.000    0.00
  17.350    5.87   28.74   -1.01   0.000   0.200   0.000    0.00
  17.400    5.60   29.44   -0.70   0.000   0.200   0.000    0.00
  17.450    5.78   29.79   -0.58   0.000   0.200   0.000    0.00
  17.500    5.30   26.87    0.08   0.000   0.200   0.000    0.00
  17.550    5.28   30.95    0.72   0.000   0.200   0.000    0.00
  17.600    5.34   36.97    0.99   0.000   0.200   0.000    0.00
  17.650    5.67   39.46    0.49   0.000   0.200   0.000    0.00
  17.700    5.10   37.60    1.04   0.000   0.200   0.000    0.00
  17.750    5.23   36.72    0.90   0.000   0.200   0.000    0.00
  17.800    5.43   27.40    1.40   0.000   0.200   0.000    0.00
  17.850    5.53   22.21    0.88   0.000   0.200   0.000    0.00
  17.900    5.94   17.61    0.88   0.000   0.200   0.000    0.00
  17.950    5.37   15.08    0.66   0.000   0.200   0.000    0.00
  18.000    4.89    7.55    0.09   0.000   0.200   0.000    0.00
  18.050    5.44    6.36    0.47   0.000   0.200   0.000    0.00
  18.100    5.49    8.85    0.93   0.000   0.200   0.000    0.00
  18.150    5.82   15.01    0.85   0.000   0.200   0.000    0.00
  18.200    6.14   24.39    1.14   0.000   0.200   0.000    0.00
  18.250    6.38   25.35    0.59   0.000   0.200   0.000    0.00
  18.300    6.52   19.53   -0.04   0.000   0.200   0.000    0.00
  18.350    5.74   18.76   -0.34   0.000   0.200   0.000    0.00
  18.400    5.32   19.82   -1.01   0.000   0.200   0.000    0.00
  18.450    5.62   19.98   -1.80   0.000   0.200   0.000    0.00
  18.500    5.46   18.06   -1.90   0.000   0.200   0.000    0.00
  18.550    6.26   17.46   -1.69   0.000   0.200   0.000    0.00
  18.600    6.24   18.56   -1.25   0.000   0.200   0.000    0.00
  18.650    6.58   17.14   -0.50   0.000   0.200   0.000    0.00
  18.700    6.84   22.08   -0.17   0.000   0.200   0.000    0.00
  18.750    6.67   25.26   -0.60   0.000   0.200   0.000    0.00
  18.800    6.40   26.12   -0.93   0.000   0.200   0.000    0.00
  18.850    6.63   22.66   -1.07   0.000   0.200   0.000    0.00
  18.900    7.07   22.56   -1.15   0.000   0.200   0.000    0.00
  18.950    6.96   21.31   -1.02   0.000   0.200   0.000    0.00
  19.000    7.20   20.10   -0.65   0.000   0.200   0.000    0.00
  19.050    6.25   16.83   -1.03   0.000   0.200   0.000    0.00
  19.100    6.64   12.99   -1.26   0.000   0.200   0.000    0.00
  19.150    6.82   14.42   -1.38   0.000   0.200   0.000    0.00
  19.200    6.00   18.05   -0.89   0.000   0.200   0.000    0.00
  19.250    6.11   11.33   -1.24   0.000   0.200   0.000    0.00
  19.300    5.57    7.37   -1.34   0.000   0.200   0.000    0.00
  19.350    5.53    6.59   -1.01   0.000   0.200   0.000    0.00
  19.400    6.13    8.76   -0.73   0.000   0.200   0.000    0.00
  19.450    6.02   12.86   -0.04   0.000   0.200   0.000    0.00
  19.500    5.82    6.44    0.10   0.000   0.200   0.000    0.00
  19.550    6.22    1.95    0.44   0.000   0.200   0.000    0.00
  19.600    6.85   -1.62    0.21   0.000   0.200   0.000    0.00
  19.650    6.89   -7.43    1.04   0.000   0.200   0.000    0.00
  19.700    6.40   -3.92    1.38   0.000   0.200   0.000    0.00
  19.750    6.80    2.20    1.59   0.000   0.200   0.000    0.00
  19.800    6.53    1.04    0.87   0.000   0.200   0.000    0.00
  19.850    6.36   -3.29    0.47   0.000   0.200   0.000    0.00
  19.900    6.22   -1.31    0.53   0.000   0.200   0.000    0.00
  19.950    7.02    2.45   -0.10   0.000   0.200   0.000    0.00
  20.000    6.84   -1.15   -0.24   0.000   0.200   0.000    0.00
  20.050    6.59   -3.23   -0.36   0.000   0.200   0.000    0.00
  20.100    6.85   -0.82   -1.04   0.000   0.200   0.000    0.00
  20.150    6.47   -2.88   -1.45   0.000   0.200   0.000    0.00
  20.200    6.77    0.55   -1.24   0.000   0.200   0.000    0.00
  20.250    6.77    2.03   -1.32   0.000   0.200   0.000    0.00
  20.300    6.81   -2.74   -1.30   0.000   0.200   0.000    0.00
  20.350    6.59    0.00   -1.83   0.000   0.200   0.000    0.00
  20.400    6.32   -6.58   -1.74   0.000   0.200   0.000    0.00
  20.450    6.32   -6.95   -1.90   0.000   0.200   0.000    0.00
  20.500    6.19   -1.27   -1.79   0.000   0.200   0.000    0.00
  20.550    6.35   -3.24   -1.29   0.000   0.200   0.000    0.00
  20.600    6.09   -4.30   -1.69   0.000   0.200   0.000    0.00
  20.650    5.67   -1.57   -1.84   0.000   0.200   0.000    0.00
  20.700    5.85   -0.01   -2.83   0.000   0.200   0.000    0.00
  20.750    6.21   -0.88   -2.73   0.000   0.200   0.000    0.00
  20.800    6.70   -0.78   -2.59   0.000   0.200   0.000    0.00
  20.850    6.58   -2.19   -2.19   0.000   0.200   0.000    0.00
  20.900    7.33   -3.18   -1.68   0.000   0.200   0.000    0.00
  20.950    7.26   -2.71   -0.97   0.000   0.200   0.000    0.00
  21.000    7.33   -2.05   -0.40   0.000   0.200   0.000    0.00
  21.050    7.56   -1.02   -0.15   0.000   0.200   0.000    0.00
  21.100    7.38   -1.21   -0.33   0.000   0.200   0.000    0.00
  21.150    7.25   -0.73   -0.28   0.000   0.200   0.000    0.00
  21.200    7.00   -6.18   -0.44   0.000   0.200   0.000    0.00
  21.250    6.84   -6.34   -0.66   0.000   0.200   0.000    0.00
  21.300    6.75   -3.52   -1.08   0.000   0.200   0.000    0.00
  21.350    6.98    0.56   -1.12   0.000   0.200   0.000    0.00
  21.400    6.97   -1.53   -1.36   0.000   0.200   0.000    0.00
  21.450    7.43   -2.96   -1.18   0.000   0.200   0.000    0.00
  21.500    7.18    0.51   -1.05   0.000   0.200   0.000    0.00
  21.550    7.84    0.51   -0.50   0.000   0.200   0.000    0.00
  21.600    8.08   -0.16    0.35   0.000   0.200   0.000    0.00
  21.650    8.02   -4.45   -0.28   0.000   0.200   0.000    0.00
  21.700    7.97   -4.26   -0.40   0.000   0.200   0.000    0.00
  21.750    7.68   -6.54   -0.29   0.000   0.200   0.000    0.00
  21.800    7.81   -5.34   -0.47   0.000   0.200   0.000    0.00
  21.850    7.73   -8.28    0.08   0.000   0.200   0.000    0.00
  21.900    8.34   -9.09   -0.26   0.000   0.200   0.000    0.00
  21.950    8.69   -8.88    0.16   0.000   0.200   0.000    0.00
  22.000    8.78  -13.84    0.35   0.000   0.200   0.000    0.00
  22.050    8.49  -16.15    0.80   0.000   0.200   0.000    0.00
  22.100    8.04  -15.91    1.38   0.000   0.200   0.000    0.00
  22.150    8.51   -8.96    1.10   0.000   0.200   0.000    0.00
  22.200    8.43   -7.95    0.98   0.000   0.200   0.000    0.00
  22.250    8.54  -11.06   -0.26   0.000   0.200   0.000    0.00
  22.300    8.85  -12.69   -0.46   0.000   0.200   0.000    0.00
  22.350    9.34  -13.70   -0.32   0.000   0.200   0.000    0.00