! This hub-height wind-speed file was generated by TurbSim (v1.06.00, 21-Sep-2012) on 16-Jun-2018 at 18:38:06.
!
! The requested statistics for this data were:
!    Mean Total Wind Speed =   23.000 m/s
!    Turbulence Intensity  =   13.909%
!
!   Time  HorSpd  WndDir  VerSpd  HorShr  VerShr  LnVShr  GstSpd
!  (sec)   (m/s)   (deg)   (m/s)     (-)     (-)     (-)   (m/s)
   0.000   22.92    4.96   -2.51   0.000   0.200   0.000    0.00
   0.050   22.06    8.24   -3.41   0.000   0.200   0.000    0.00
   0.100   21.98    7.30   -2.75   0.000   0.200   0.000    0.00
   0.150   22.30    4.35   -3.07   0.000   0.200   0.000    0.00
   0.200   22.77    5.40   -2.54   0.000   0.200   0.000    0.00
   0.250   23.39    0.70   -3.44   0.000   0.200   0.000    0.00
   0.300   23.86    2.27   -3.56   0.000   0.200   0.000    0.00
   0.350   23.66    2.69   -2.38   0.000   0.200   0.000    0.00
   0.400   23.61    1.35   -2.17   0.000   0.200   0.000    0.00
   0.450   23.76    3.12   -1.84   0.000   0.200   0.000    0.00
   0.500   24.16    5.46   -2.09   0.000   0.200   0.000    0.00
   0.550   23.95    5.36   -1.66   0.000   0.200   0.000    0.00
   0.600   24.75    6.14   -1.66   0.000   0.200   0.000    0.00
   0.650   25.39    2.10   -1.23   0.000   0.200   0.000    0.00
   0.700   25.88   -0.64   -1.06   0.000   0.200   0.000    0.00
   0.750   27.13    1.53   -0.60   0.000   0.200   0.000    0.00
   0.800   27.00    1.62   -1.13   0.000   0.200   0.000    0.00
   0.850   26.55    1.08   -1.62   0.000   0.200   0.000    0.00
   0.900   26.18    1.79   -0.06   0.000   0.200   0.000    0.00
   0.950   25.06    3.66    0.17   0.000   0.200   0.000    0.00
   1.000   25.13    2.13   -0.75   0.000   0.200   0.000    0.00
   1.050   24.96    3.45   -0.59   0.000   0.200   0.000    0.00
   1.100   24.29    2.83    0.39   0.000   0.200   0.000    0.00
   1.150   24.66    5.02    0.60   0.000   0.200   0.000    0.00
   1.200   25.10    6.58    0.19   0.000   0.200   0.000    0.00
   1.250   24.43    8.81   -0.11   0.000   0.200   0.000    0.00
   1.300   24.08    6.45    0.13   0.000   0.200   0.000    0.00
   1.350   24.17    6.22    0.10   0.000   0.200   0.000    0.00
   1.400   23.16    5.85   -0.77   0.000   0.200   0.000    0.00
   1.450   23.22    7.13   -1.10   0.000   0.200   0.000    0.00
   1.500   23.05    5.75   -1.80   0.000   0.200   0.000    0.00
   1.550   23.87    4.23   -3.17   0.000   0.200   0.000    0.00
   1.600   24.47    4.25   -4.10   0.000   0.200   0.000    0.00
   1.650   23.20    5.94   -3.70   0.000   0.200   0.000    0.00
   1.700   23.03    4.30   -2.75   0.000   0.200   0.000    0.00
   1.750   23.98    4.60   -2.14   0.000   0.200   0.000    0.00
   1.800   24.69    4.04   -1.08   0.000   0.200   0.000    0.00
   1.850   24.75    4.87   -0.99   0.000   0.200   0.000    0.00
   1.900   25.04    7.93   -0.43   0.000   0.200   0.000    0.00
   1.950   24.91    6.59   -1.12   0.000   0.200   0.000    0.00
   2.000   24.57    5.25   -0.94   0.000   0.200   0.000    0.00
   2.050   24.68    5.57    0.00   0.000   0.200   0.000    0.00
   2.100   23.79    2.48    0.84   0.000   0.200   0.000    0.00
   2.150   23.28    3.97    1.59   0.000   0.200   0.000    0.00
   2.200   23.85    5.44    3.09   0.000   0.200   0.000    0.00
   2.250   23.25    1.94    3.70   0.000   0.200   0.000    0.00
   2.300   23.36    3.44    2.74   0.000   0.200   0.000    0.00
   2.350   22.95    4.25    1.52   0.000   0.200   0.000    0.00
   2.400   22.50    3.27    1.58   0.000   0.200   0.000    0.00
   2.450   22.37   -0.42    1.13   0.000   0.200   0.000    0.00
   2.500   22.52   -0.16    0.51   0.000   0.200   0.000    0.00
   2.550   23.36   -0.82   -0.09   0.000   0.200   0.000    0.00
   2.600   23.54    0.37    0.33   0.000   0.200   0.000    0.00
   2.650   24.36    0.89    0.84   0.000   0.200   0.000    0.00
   2.700   24.55   -0.18    0.76   0.000   0.200   0.000    0.00
   2.750   24.62   -1.97    0.58   0.000   0.200   0.000    0.00
   2.800   23.15   -0.71    1.13   0.000   0.200   0.000    0.00
   2.850   23.17    0.25    0.92   0.000   0.200   0.000    0.00
   2.900   22.48    2.94    1.01   0.000   0.200   0.000    0.00
   2.950   21.85    2.27    1.73   0.000   0.200   0.000    0.00
   3.000   22.36    0.22    1.65   0.000   0.200   0.000    0.00
   3.050   22.07    0.84    2.25   0.000   0.200   0.000    0.00
   3.100   22.02    1.24    1.91   0.000   0.200   0.000    0.00
   3.150   23.18   -0.07    4.05   0.000   0.200   0.000    0.00
   3.200   22.54    0.22    3.44   0.000   0.200   0.000    0.00
   3.250   22.05   -0.45    4.10   0.000   0.200   0.000    0.00
   3.300   21.94   -1.56    5.04   0.000   0.200   0.000    0.00
   3.350   22.06    0.58    5.03   0.000   0.200   0.000    0.00
   3.400   21.87    1.60    4.34   0.000   0.200   0.000    0.00
   3.450   21.72    1.80    3.95   0.000   0.200   0.000    0.00
   3.500   20.88    0.89    3.86   0.000   0.200   0.000    0.00
   3.550   20.81    0.27    3.66   0.000   0.200   0.000    0.00
   3.600   20.76   -1.77    2.43   0.000   0.200   0.000    0.00
   3.650   21.83   -2.92    2.00   0.000   0.200   0.000    0.00
   3.700   22.55   -3.83    2.21   0.000   0.200   0.000    0.00
   3.750   22.29    0.14    2.09   0.000   0.200   0.000    0.00
   3.800   23.01    1.14    1.31   0.000   0.200   0.000    0.00
   3.850   22.87   -0.26    2.25   0.000   0.200   0.000    0.00
   3.900   22.36    0.70    1.73   0.000   0.200   0.000    0.00
   3.950   22.95    0.76    1.91   0.000   0.200   0.000    0.00
   4.000   23.34    0.79    2.41   0.000   0.200   0.000    0.00
   4.050   23.46    2.11    2.41   0.000   0.200   0.000    0.00
   4.100   24.07    0.11    2.48   0.000   0.200   0.000    0.00
   4.150   24.31   -1.24    1.89   0.000   0.200   0.000    0.00
   4.200   23.84   -1.80    2.54   0.000   0.200   0.000    0.00
   4.250   24.72    0.89    2.75   0.000   0.200   0.000    0.00
   4.300   24.53   -0.79    3.08   0.000   0.200   0.000    0.00
   4.350   24.99   -0.69    3.26   0.000   0.200   0.000    0.00
   4.400   24.84   -0.95    3.07   0.000   0.200   0.000    0.00
   4.450   24.14   -2.18    2.51   0.000   0.200   0.000    0.00
   4.500   23.83   -2.14    1.33   0.000   0.200   0.000    0.00
   4.550   23.96   -3.34    0.95   0.000   0.200   0.000    0.00
   4.600   24.41   -3.81   -0.32   0.000   0.200   0.000    0.00
   4.650   23.28   -1.60    1.39   0.000   0.200   0.000    0.00
   4.700   21.97    1.78    0.51   0.000   0.200   0.000    0.00
   4.750   22.38    0.30    1.47   0.000   0.200   0.000    0.00
   4.800   22.16   -0.61    1.17   0.000   0.200   0.000    0.00
   4.850   21.63    1.65    1.17   0.000   0.200   0.000    0.00
   4.900   21.23   -0.31    2.30   0.000   0.200   0.000    0.00
   4.950   21.46   -0.25    2.09   0.000   0.200   0.000    0.00
   5.000   21.30    1.43    1.98   0.000   0.200   0.000    0.00
   5.050   21.66    2.44    0.77   0.000   0.200   0.000    0.00
   5.100   21.34   -0.92    0.27   0.000   0.200   0.000    0.00
   5.150   20.78   -0.35    0.19   0.000   0.200   0.000    0.00
   5.200   22.26   -0.01    0.47   0.000   0.200   0.000    0.00
   5.250   21.42    0.16    1.47   0.000   0.200   0.000    0.00
   5.300   20.54    2.77    2.12   0.000   0.200   0.000    0.00
   5.350   21.36    3.97    1.20   0.000   0.200   0.000    0.00
   5.400   21.86    3.71    2.04   0.000   0.200   0.000    0.00
   5.450   20.86    2.69    2.21   0.000   0.200   0.000    0.00
   5.500   21.05    1.48    1.12   0.000   0.200   0.000    0.00
   5.550   20.73    1.00    1.69   0.000   0.200   0.000    0.00
   5.600   20.68    4.61    1.73   0.000   0.200   0.000    0.00
   5.650   21.13    7.03    1.96   0.000   0.200   0.000    0.00
   5.700   21.28    7.88    2.12   0.000   0.200   0.000    0.00
   5.750   21.43    9.97    1.74   0.000   0.200   0.000    0.00
   5.800   22.33   15.74    0.32   0.000   0.200   0.000    0.00
   5.850   22.37   12.74   -0.11   0.000   0.200   0.000    0.00
   5.900   21.86   12.84    0.26   0.000   0.200   0.000    0.00
   5.950   21.81   13.92   -0.92   0.000   0.200   0.000    0.00
   6.000   20.90   13.87   -0.76   0.000   0.200   0.000    0.00
   6.050   21.12   13.21   -1.25   0.000   0.200   0.000    0.00
   6.100   20.64   13.17   -1.00   0.000   0.200   0.000    0.00
   6.150   20.71   11.51   -0.79   0.000   0.200   0.000    0.00
   6.200   20.46   11.29    0.59   0.000   0.200   0.000    0.00
   6.250   20.64   11.05   -0.14   0.000   0.200   0.000    0.00
   6.300   20.19   11.58   -0.52   0.000   0.200   0.000    0.00
   6.350   20.08    9.28   -0.64   0.000   0.200   0.000    0.00
   6.400   19.54   12.41   -0.91   0.000   0.200   0.000    0.00
   6.450   19.14   12.81   -0.80   0.000   0.200   0.000    0.00
   6.500   18.88    9.46   -1.17   0.000   0.200   0.000    0.00
   6.550   17.33    9.00   -2.38   0.000   0.200   0.000    0.00
   6.600   17.32    8.80   -1.05   0.000   0.200   0.000    0.00
   6.650   18.15    8.02   -1.38   0.000   0.200   0.000    0.00
   6.700   18.46    8.19   -0.03   0.000   0.200   0.000    0.00
   6.750   19.11    8.43    1.14   0.000   0.200   0.000    0.00
   6.800   18.60   10.34    0.92   0.000   0.200   0.000    0.00
   6.850   20.17   14.06    1.33   0.000   0.200   0.000    0.00
   6.900   19.66   14.44   -0.20   0.000   0.200   0.000    0.00
   6.950   20.75   17.74   -0.71   0.000   0.200   0.000    0.00
   7.000   20.29   19.92   -0.79   0.000   0.200   0.000    0.00
   7.050   21.06   21.62   -0.65   0.000   0.200   0.000    0.00
   7.100   21.51   19.94   -1.75   0.000   0.200   0.000    0.00
   7.150   21.47   18.22   -1.06   0.000   0.200   0.000    0.00
   7.200   21.58   18.33    0.23   0.000   0.200   0.000    0.00
   7.250   19.97   16.07   -0.06   0.000   0.200   0.000    0.00
   7.300   20.69   13.22    0.62   0.000   0.200   0.000    0.00
   7.350   21.58   12.96    0.97   0.000   0.200   0.000    0.00
   7.400   21.67   14.84    0.62   0.000   0.200   0.000    0.00
   7.450   22.50   14.88    1.18   0.000   0.200   0.000    0.00
   7.500   22.40   16.02    0.79   0.000   0.200   0.000    0.00
   7.550   22.00   13.28    2.01   0.000   0.200   0.000    0.00
   7.600   21.58    9.98    2.49   0.000   0.200   0.000    0.00
   7.650   21.70   13.70    2.65   0.000   0.200   0.000    0.00
   7.700   20.29   10.67    3.48   0.000   0.200   0.000    0.00
   7.750   20.08   10.49    3.24   0.000   0.200   0.000    0.00
   7.800   20.01    7.93    2.61   0.000   0.200   0.000    0.00
   7.850   20.62    7.59    2.31   0.000   0.200   0.000    0.00
   7.900   21.54    7.90    2.28   0.000   0.200   0.000    0.00
   7.950   21.12    6.57    1.99   0.000   0.200   0.000    0.00
   8.000   21.66    5.95    2.67   0.000   0.200   0.000    0.00
   8.050   21.72    4.51    1.66   0.000   0.200   0.000    0.00
   8.100   22.05    6.41    0.55   0.000   0.200   0.000    0.00
   8.150   22.04    5.56    1.98   0.000   0.200   0.000    0.00
   8.200   20.82    3.71    2.30   0.000   0.200   0.000    0.00
   8.250   21.51    2.87    1.41   0.000   0.200   0.000    0.00
   8.300   22.84    2.97    0.46   0.000   0.200   0.000    0.00
   8.350   22.09    4.52   -0.07   0.000   0.200   0.000    0.00
   8.400   21.81    1.22    0.59   0.000   0.200   0.000    0.00
   8.450   22.66    4.72    1.10   0.000   0.200   0.000    0.00
   8.500   22.53    4.38    2.14   0.000   0.200   0.000    0.00
   8.550   21.87    2.96    2.91   0.000   0.200   0.000    0.00
   8.600   22.30    4.18    1.46   0.000   0.200   0.000    0.00
   8.650   22.61    3.08    2.03   0.000   0.200   0.000    0.00
   8.700   22.78    1.77    2.33   0.000   0.200   0.000    0.00
   8.750   22.02    0.82    2.58   0.000   0.200   0.000    0.00
   8.800   22.09    0.68    1.93   0.000   0.200   0.000    0.00
   8.850   21.85    0.46    1.56   0.000   0.200   0.000    0.00
   8.900   22.45   -0.79    1.56   0.000   0.200   0.000    0.00
   8.950   22.31    1.26    0.74   0.000   0.200   0.000    0.00
   9.000   21.55    1.04    1.54   0.000   0.200   0.000    0.00
   9.050   22.03    4.11    2.04   0.000   0.200   0.000    0.00
   9.100   22.22    1.03    1.70   0.000   0.200   0.000    0.00
   9.150   21.82    0.85    1.89   0.000   0.200   0.000    0.00
   9.200   21.95    1.37    2.68   0.000   0.200   0.000    0.00
   9.250   22.31   -0.04    1.59   0.000   0.200   0.000    0.00
   9.300   22.34    0.00    1.74   0.000   0.200   0.000    0.00
   9.350   21.66   -1.79    1.30   0.000   0.200   0.000    0.00
   9.400   21.41    1.14    1.53   0.000   0.200   0.000    0.00
   9.450   20.92    3.10    2.00   0.000   0.200   0.000    0.00
   9.500   21.63    3.84    1.31   0.000   0.200   0.000    0.00
   9.550   21.56    2.98    1.86   0.000   0.200   0.000    0.00
   9.600   22.48    2.05    2.20   0.000   0.200   0.000    0.00
   9.650   21.90    2.84    2.40   0.000   0.200   0.000    0.00
   9.700   20.75    3.34    1.41   0.000   0.200   0.000    0.00
   9.750   20.71    2.67   -0.46   0.000   0.200   0.000    0.00
   9.800   19.58    3.45   -0.44   0.000   0.200   0.000    0.00
   9.850   18.97    2.92   -0.88   0.000   0.200   0.000    0.00
   9.900   18.92    4.35   -0.20   0.000   0.200   0.000    0.00
   9.950   18.58    7.59   -0.33   0.000   0.200   0.000    0.00
  10.000   18.57   10.93    0.11   0.000   0.200   0.000    0.00
  10.050   17.97   11.64   -0.59   0.000   0.200   0.000    0.00
  10.100   18.64   13.53   -0.67   0.000   0.200   0.000    0.00
  10.150   19.55    9.72    0.28   0.000   0.200   0.000    0.00
  10.200   20.13    6.73    0.07   0.000   0.200   0.000    0.00
  10.250   19.65    4.86    1.30   0.000   0.200   0.000    0.00
  10.300   19.95    4.30    2.00   0.000   0.200   0.000    0.00
  10.350   19.82    3.86    1.00   0.000   0.200   0.000    0.00
  10.400   20.46    3.54    0.24   0.000   0.200   0.000    0.00
  10.450   20.25    5.07    2.03   0.000   0.200   0.000    0.00
  10.500   20.76    8.57    1.76   0.000   0.200   0.000    0.00
  10.550   20.71    7.67    1.63   0.000   0.200   0.000    0.00
  10.600   20.59    8.60    2.28   0.000   0.200   0.000    0.00
  10.650   20.13   10.33    2.88   0.000   0.200   0.000    0.00
  10.700   19.94   12.14    2.68   0.000   0.200   0.000    0.00
  10.750   20.45    8.28    2.13   0.000   0.200   0.000    0.00
  10.800   20.28   11.63    1.67   0.000   0.200   0.000    0.00
  10.850   19.67   11.69    0.59   0.000   0.200   0.000    0.00
  10.900   19.96   10.42    0.75   0.000   0.200   0.000    0.00
  10.950   20.91   12.42    0.96   0.000   0.200   0.000    0.00
  11.000   19.36   10.32    1.19   0.000   0.200   0.000    0.00
  11.050   19.78   10.68    0.26   0.000   0.200   0.000    0.00
  11.100   20.49   14.09    0.16   0.000   0.200   0.000    0.00
  11.150   19.96   13.04    0.46   0.000   0.200   0.000    0.00
  11.200   19.32   12.43    1.00   0.000   0.200   0.000    0.00
  11.250   19.27   14.20    0.93   0.000   0.200   0.000    0.00
  11.300   19.98   16.04    0.90   0.000   0.200   0.000    0.00
  11.350   19.63   16.33    1.34   0.000   0.200   0.000    0.00
  11.400   19.26   16.04    0.91   0.000   0.200   0.000    0.00
  11.450   18.55   15.15    0.08   0.000   0.200   0.000    0.00
  11.500   18.52   17.53   -0.24   0.000   0.200   0.000    0.00
  11.550   20.28   16.60    0.11   0.000   0.200   0.000    0.00
  11.600   19.31   13.09    0.25   0.000   0.200   0.000    0.00
  11.650   20.27   12.86   -0.59   0.000   0.200   0.000    0.00
  11.700   19.73   10.84   -0.65   0.000   0.200   0.000    0.00
  11.750   19.69   11.21   -0.71   0.000   0.200   0.000    0.00
  11.800   20.13   10.12   -1.16   0.000   0.200   0.000    0.00
  11.850   19.89    7.17   -1.32   0.000   0.200   0.000    0.00
  11.900   20.41    9.78   -0.35   0.000   0.200   0.000    0.00
  11.950   19.39    6.83   -0.39   0.000   0.200   0.000    0.00
  12.000   19.75    6.00   -0.61   0.000   0.200   0.000    0.00
  12.050   19.09    6.88    0.05   0.000   0.200   0.000    0.00
  12.100   19.00    6.22    0.62   0.000   0.200   0.000    0.00
  12.150   19.15    2.20    1.32   0.000   0.200   0.000    0.00
  12.200   19.36    1.98    0.85   0.000   0.200   0.000    0.00
  12.250   19.47    2.59    0.72   0.000   0.200   0.000    0.00
  12.300   19.66    1.88    0.70   0.000   0.200   0.000    0.00
  12.350   20.11    2.65    0.32   0.000   0.200   0.000    0.00
  12.400   20.45   -0.19    1.39   0.000   0.200   0.000    0.00
  12.450   19.79    0.09    1.58   0.000   0.200   0.000    0.00
  12.500   18.78    1.12    1.64   0.000   0.200   0.000    0.00
  12.550   17.63    6.33    1.49   0.000   0.200   0.000    0.00
  12.600   17.73    7.57    1.96   0.000   0.200   0.000    0.00
  12.650   16.99   11.77    2.50   0.000   0.200   0.000    0.00
  12.700   16.90   10.01    1.50   0.000   0.200   0.000    0.00
  12.750   17.51    9.49    1.35   0.000   0.200   0.000    0.00
  12.800   17.27   10.62    1.33   0.000   0.200   0.000    0.00
  12.850   17.07   10.86    0.87   0.000   0.200   0.000    0.00
  12.900   16.68    7.18    0.68   0.000   0.200   0.000    0.00
  12.950   16.63    7.78    0.54   0.000   0.200   0.000    0.00
  13.000   16.60    8.19    0.18   0.000   0.200   0.000    0.00
  13.050   15.18    6.79    1.56   0.000   0.200   0.000    0.00
  13.100   16.12    4.69   -0.41   0.000   0.200   0.000    0.00
  13.150   15.70    2.37   -0.19   0.000   0.200   0.000    0.00
  13.200   16.71    4.96   -0.23   0.000   0.200   0.000    0.00
  13.250   17.55    2.68   -0.67   0.000   0.200   0.000    0.00
  13.300   19.01    4.20   -1.17   0.000   0.200   0.000    0.00
  13.350   17.84    1.92   -0.62   0.000   0.200   0.000    0.00
  13.400   18.14    2.67   -1.60   0.000   0.200   0.000    0.00
  13.450   17.85    2.35   -1.73   0.000   0.200   0.000    0.00
  13.500   18.10    3.31   -1.89   0.000   0.200   0.000    0.00
  13.550   18.50    2.42   -2.82   0.000   0.200   0.000    0.00
  13.600   18.34    0.24   -3.33   0.000   0.200   0.000    0.00
  13.650   17.24    0.45   -2.16   0.000   0.200   0.000    0.00
  13.700   17.20    1.45   -1.46   0.000   0.200   0.000    0.00
  13.750   16.48    4.65   -1.60   0.000   0.200   0.000    0.00
  13.800   15.90    5.46   -1.09   0.000   0.200   0.000    0.00
  13.850   16.21    1.17   -1.56   0.000   0.200   0.000    0.00
  13.900   17.46    0.77   -2.03   0.000   0.200   0.000    0.00
  13.950   17.65   -3.58   -2.80   0.000   0.200   0.000    0.00
  14.000   17.17   -2.30   -2.89   0.000   0.200   0.000    0.00
  14.050   16.88   -1.58   -2.22   0.000   0.200   0.000    0.00
  14.100   17.05   -4.66   -2.87   0.000   0.200   0.000    0.00
  14.150   16.73   -4.12   -2.58   0.000   0.200   0.000    0.00
  14.200   17.20   -1.58   -2.27   0.000   0.200   0.000    0.00
  14.250   18.31   -0.04   -2.68   0.000   0.200   0.000    0.00
  14.300   17.70    0.12   -2.57   0.000   0.200   0.000    0.00
  14.350   19.02    0.60   -0.88   0.000   0.200   0.000    0.00
  14.400   19.10    1.47   -0.24   0.000   0.200   0.000    0.00
  14.450   18.26    0.11    0.70   0.000   0.200   0.000    0.00
  14.500   19.05   -1.09   -0.15   0.000   0.200   0.000    0.00
  14.550   18.51    1.30   -1.49   0.000   0.200   0.000    0.00
  14.600   17.98    4.00   -0.77   0.000   0.200   0.000    0.00
  14.650   16.73    8.75   -1.18   0.000   0.200   0.000    0.00
  14.700   17.04   10.14   -1.65   0.000   0.200   0.000    0.00
  14.750   16.91    6.92   -1.79   0.000   0.200   0.000    0.00
  14.800   16.89    5.53   -2.43   0.000   0.200   0.000    0.00
  14.850   16.94    2.68   -2.79   0.000   0.200   0.000    0.00
  14.900   18.07    3.27   -1.50   0.000   0.200   0.000    0.00
  14.950   17.61    3.74   -1.77   0.000   0.200   0.000    0.00
  15.000   18.87    6.17   -0.95   0.000   0.200   0.000    0.00
  15.050   19.05    8.80    0.77   0.000   0.200   0.000    0.00
  15.100   19.55    9.79    1.47   0.000   0.200   0.000    0.00
  15.150   21.04    8.39    2.23   0.000   0.200   0.000    0.00
  15.200   19.59    8.01    2.30   0.000   0.200   0.000    0.00
  15.250   19.38    7.21    1.93   0.000   0.200   0.000    0.00
  15.300   19.25    7.24    0.89   0.000   0.200   0.000    0.00
  15.350   19.63    7.13    0.48   0.000   0.200   0.000    0.00
  15.400   19.35    6.95   -0.23   0.000   0.200   0.000    0.00
  15.450   19.56    8.78   -0.25   0.000   0.200   0.000    0.00
  15.500   19.83   10.79    0.89   0.000   0.200   0.000    0.00
  15.550   19.52   10.59    0.45   0.000   0.200   0.000    0.00
  15.600   19.63    6.81   -0.78   0.000   0.200   0.000    0.00
  15.650   20.18    5.54    0.17   0.000   0.200   0.000    0.00
  15.700   20.95    6.56    0.27   0.000   0.200   0.000    0.00
  15.750   21.81    5.55   -0.39   0.000   0.200   0.000    0.00
  15.800   21.66    0.55   -0.73   0.000   0.200   0.000    0.00
  15.850   22.26    2.15   -0.08   0.000   0.200   0.000    0.00
  15.900   22.86    2.17    0.15   0.000   0.200   0.000    0.00
  15.950   23.75   -0.11    0.51   0.000   0.200   0.000    0.00
  16.000   22.70    0.63   -0.14   0.000   0.200   0.000    0.00
  16.050   23.03   -0.22   -0.04   0.000   0.200   0.000    0.00
  16.100   23.52   -4.65   -0.91   0.000   0.200   0.000    0.00
  16.150   24.89   -4.34   -0.50   0.000   0.200   0.000    0.00
  16.200   25.19   -8.47   -0.22   0.000   0.200   0.000    0.00
  16.250   23.71   -7.16    1.44   0.000   0.200   0.000    0.00
  16.300   22.80   -3.77    1.14   0.000   0.200   0.000    0.00
  16.350   22.89   -0.42   -0.21   0.000   0.200   0.000    0.00
  16.400   24.10   -0.85   -0.64   0.000   0.200   0.000    0.00
  16.450   23.60   -5.06    0.34   0.000   0.200   0.000    0.00
  16.500   23.75   -3.32   -0.37   0.000   0.200   0.000    0.00
  16.550   23.07   -1.60   -1.31   0.000   0.200   0.000    0.00
  16.600   23.23    0.55   -0.47   0.000   0.200   0.000    0.00
  16.650   24.09    0.18   -0.29   0.000   0.200   0.000    0.00
  16.700   23.72    0.06   -0.92   0.000   0.200   0.000    0.00
  16.750   24.25    0.12   -1.62   0.000   0.200   0.000    0.00
  16.800   24.45    1.59   -0.93   0.000   0.200   0.000    0.00
  16.850   22.97    2.30    0.22   0.000   0.200   0.000    0.00
  16.900   22.51    0.89    1.04   0.000   0.200   0.000    0.00
  16.950   21.99    2.30   -0.54   0.000   0.200   0.000    0.00
  17.000   22.09   -0.06   -1.88   0.000   0.200   0.000    0.00
  17.050   22.30    3.96   -1.56   0.000   0.200   0.000    0.00
  17.100   22.22    1.16   -0.88   0.000   0.200   0.000    0.00
  17.150   22.10   -1.10   -0.94   0.000   0.200   0.000    0.00
  17.200   22.24   -0.29   -1.27   0.000   0.200   0.000    0.00
  17.250   22.38   -2.51   -1.36   0.000   0.200   0.000    0.00
  17.300   21.70   -4.76   -0.24   0.000   0.200   0.000    0.00
  17.350   21.86   -4.83    0.05   0.000   0.200   0.000    0.00
  17.400   21.36   -4.16    0.32   0.000   0.200   0.000    0.00
  17.450   21.94   -4.53    0.34   0.000   0.200   0.000    0.00
  17.500   21.52   -5.81    0.47   0.000   0.200   0.000    0.00
  17.550   20.59   -4.81    0.68   0.000   0.200   0.000    0.00
  17.600   21.16   -3.92   -0.14   0.000   0.200   0.000    0.00
  17.650   21.27   -5.36    0.69   0.000   0.200   0.000    0.00
  17.700   21.67   -4.78    0.31   0.000   0.200   0.000    0.00
  17.750   21.88   -6.15    0.30   0.000   0.200   0.000    0.00
  17.800   21.86   -8.57    0.02   0.000   0.200   0.000    0.00
  17.850   20.96  -11.49    0.34   0.000   0.200   0.000    0.00
  17.900   20.81  -10.49   -0.52   0.000   0.200   0.000    0.00
  17.950   20.26   -8.01    0.59   0.000   0.200   0.000    0.00
  18.000   20.45   -7.88    0.21   0.000   0.200   0.000    0.00
  18.050   19.91   -8.91    0.74   0.000   0.200   0.000    0.00
  18.100   19.15   -6.27    0.74   0.000   0.200   0.000    0.00
  18.150   18.41   -5.02   -0.50   0.000   0.200   0.000    0.00
  18.200   18.89   -6.37   -0.68   0.000   0.200   0.000    0.00
  18.250   19.44   -1.93   -1.48   0.000   0.200   0.000    0.00
  18.300   19.26   -3.50   -1.48   0.000   0.200   0.000    0.00
  18.350   20.26   -1.39   -2.24   0.000   0.200   0.000    0.00
  18.400   19.92   -0.75   -1.88   0.000   0.200   0.000    0.00
  18.450   20.00    1.59   -1.62   0.000   0.200   0.000    0.00
  18.500   20.03   -0.50   -1.00   0.000   0.200   0.000    0.00
  18.550   20.22    2.68   -0.95   0.000   0.200   0.000    0.00
  18.600   19.38    0.37    0.43   0.000   0.200   0.000    0.00
  18.650   19.78   -3.45    0.66   0.000   0.200   0.000    0.00
  18.700   20.40   -3.33   -0.43   0.000   0.200   0.000    0.00
  18.750   20.77   -5.10    0.64   0.000   0.200   0.000    0.00
  18.800   19.94   -4.70    1.79   0.000   0.200   0.000    0.00
  18.850   19.67   -7.17    1.79   0.000   0.200   0.000    0.00
  18.900   20.56   -7.11    0.96   0.000   0.200   0.000    0.00
  18.950   21.15   -6.25    0.45   0.000   0.200   0.000    0.00
  19.000   21.48   -5.26    0.44   0.000   0.200   0.000    0.00
  19.050   20.96   -6.57   -0.01   0.000   0.200   0.000    0.00
  19.100   20.42   -6.30    0.15   0.000   0.200   0.000    0.00
  19.150   20.73   -2.79    0.02   0.000   0.200   0.000    0.00
  19.200   19.53   -7.79    1.14   0.000   0.200   0.000    0.00
  19.250   19.71   -6.04    0.84   0.000   0.200   0.000    0.00
  19.300   20.06   -5.39    0.53   0.000   0.200   0.000    0.00
  19.350   20.63   -4.25    0.51   0.000   0.200   0.000    0.00
  19.400   20.88   -3.73    1.40   0.000   0.200   0.000    0.00
  19.450   20.61   -3.95    2.06   0.000   0.200   0.000    0.00
  19.500   20.08   -3.09    0.94   0.000   0.200   0.000    0.00
  19.550   20.12   -3.15   -0.24   0.000   0.200   0.000    0.00
  19.600   19.73   -2.24   -0.12   0.000   0.200   0.000    0.00
  19.650   19.19   -1.16    0.07   0.000   0.200   0.000    0.00
  19.700   19.70   -3.95    0.80   0.000   0.200   0.000    0.00
  19.750   18.99   -3.50   -0.05   0.000   0.200   0.000    0.00
  19.800   19.38   -6.28   -0.12   0.000   0.200   0.000    0.00
  19.850   18.99   -5.20   -0.11   0.000   0.200   0.000    0.00
  19.900   18.79   -4.46    0.33   0.000   0.200   0.000    0.00
  19.950   18.51   -8.66    0.18   0.000   0.200   0.000    0.00
  20.000   18.53   -8.94    0.46   0.000   0.200   0.000    0.00
  20.050   17.18  -10.65   -0.50   0.000   0.200   0.000    0.00
  20.100   16.61  -11.26   -1.23   0.000   0.200   0.000    0.00
  20.150   16.91  -13.31   -0.91   0.000   0.200   0.000    0.00
  20.200   17.86  -11.49   -1.74   0.000   0.200   0.000    0.00
  20.250   18.08  -12.60   -1.20   0.000   0.200   0.000    0.00
  20.300   18.15  -12.72   -1.00   0.000   0.200   0.000    0.00
  20.350   18.73  -12.93   -1.75   0.000   0.200   0.000    0.00
  20.400   19.14  -11.91   -1.24   0.000   0.200   0.000    0.00
  20.450   19.08   -7.53    0.20   0.000   0.200   0.000    0.00
  20.500   19.39   -7.20   -1.53   0.000   0.200   0.000    0.00
  20.550   19.70   -7.81   -0.76   0.000   0.200   0.000    0.00
  20.600   20.91   -9.02   -1.56   0.000   0.200   0.000    0.00
  20.650   19.60   -9.09   -1.40   0.000   0.200   0.000    0.00
  20.700   19.40   -9.72   -0.21   0.000   0.200   0.000    0.00
  20.750   19.06   -6.25   -0.69   0.000   0.200   0.000    0.00
  20.800   19.70   -7.03   -1.23   0.000   0.200   0.000    0.00
  20.850   19.32   -7.18   -1.44   0.000   0.200   0.000    0.00
  20.900   20.26   -9.08   -1.90   0.000   0.200   0.000    0.00
  20.950   18.70   -7.68   -2.76   0.000   0.200   0.000    0.00
  21.000   18.23   -5.73   -1.76   0.000   0.200   0.000    0.00
  21.050   17.35   -6.07   -1.15   0.000   0.200   0.000    0.00
  21.100   18.01   -5.79   -0.55   0.000   0.200   0.000    0.00
  21.150   18.42   -7.68   -0.45   0.000   0.200   0.000    0.00
  21.200   17.86  -11.25   -1.30   0.000   0.200   0.000    0.00
  21.250   18.70  -14.00   -0.32   0.000   0.200   0.000    0.00
  21.300   18.60  -11.55   -0.97   0.000   0.200   0.000    0.00
  21.350   19.61  -10.03   -0.22   0.000   0.200   0.000    0.00
  21.400   20.29   -7.37   -0.43   0.000   0.200   0.000    0.00
  21.450   19.68   -5.37   -1.19   0.000   0.200   0.000    0.00
  21.500   20.29   -5.16   -2.07   0.000   0.200   0.000    0.00
  21.550   21.33   -8.21   -1.57   0.000   0.200   0.000    0.00
  21.600   20.91   -7.03   -1.41   0.000   0.200   0.000    0.00
  21.650   21.49   -2.35   -1.79   0.000   0.200   0.000    0.00
  21.700   20.69   -1.55   -1.64   0.000   0.200   0.000    0.00
  21.750   19.15   -1.66   -0.19   0.000   0.200   0.000    0.00
  21.800   19.17    0.27    0.88   0.000   0.200   0.000    0.00
  21.850   20.42   -1.24    1.12   0.000   0.200   0.000    0.00
  21.900   20.62   -2.63    1.22   0.000   0.200   0.000    0.00
  21.950   19.60    1.12    0.85   0.000   0.200   0.000    0.00
  22.000   19.69    5.51    0.67   0.000   0.200   0.000    0.00
  22.050   20.27    2.02    0.47   0.000   0.200   0.000    0.00
  22.100   20.46   -0.82    0.38   0.000   0.200   0.000    0.00
  22.150   20.92   -1.03    0.94   0.000   0.200   0.000    0.00
  22.200   21.72   -0.52    0.02   0.000   0.200   0.000    0.00
  22.250   22.63    3.74    0.38   0.000   0.200   0.000    0.00
  22.300   22.19    2.69    1.09   0.000   0.200   0.000    0.00
  22.350   21.67    2.26    1.08   0.000   0.200   0.000    0.00