! This hub-height wind-speed file was generated by TurbSim (v1.06.00, 21-Sep-2012) on 16-Jun-2018 at 18:33:31.
!
! The requested statistics for this data were:
!    Mean Total Wind Speed =   19.000 m/s
!    Turbulence Intensity  =   14.626%
!
!   Time  HorSpd  WndDir  VerSpd  HorShr  VerShr  LnVShr  GstSpd
!  (sec)   (m/s)   (deg)   (m/s)     (-)     (-)     (-)   (m/s)
   0.000   22.16    2.22   -1.18   0.000   0.200   0.000    0.00
   0.050   22.73    1.19   -0.85   0.000   0.200   0.000    0.00
   0.100   22.50    4.50   -1.22   0.000   0.200   0.000    0.00
   0.150   23.31    5.62   -1.41   0.000   0.200   0.000    0.00
   0.200   23.58    5.08   -1.05   0.000   0.200   0.000    0.00
   0.250   23.66    3.38   -1.84   0.000   0.200   0.000    0.00
   0.300   23.60    1.53   -1.70   0.000   0.200   0.000    0.00
   0.350   23.59    1.60   -2.42   0.000   0.200   0.000    0.00
   0.400   23.48    3.03   -1.34   0.000   0.200   0.000    0.00
   0.450   23.50    4.72   -0.77   0.000   0.200   0.000    0.00
   0.500   23.63    4.63   -0.94   0.000   0.200   0.000    0.00
   0.550   23.06    6.20   -1.33   0.000   0.200   0.000    0.00
   0.600   22.08    5.68   -1.73   0.000   0.200   0.000    0.00
   0.650   21.94    4.98   -1.22   0.000   0.200   0.000    0.00
   0.700   21.40    5.29   -2.04   0.000   0.200   0.000    0.00
   0.750   20.73    5.92   -2.20   0.000   0.200   0.000    0.00
   0.800   20.19   10.70   -2.55   0.000   0.200   0.000    0.00
   0.850   19.70   10.41   -2.46   0.000   0.200   0.000    0.00
   0.900   19.98    9.91   -1.94   0.000   0.200   0.000    0.00
   0.950   19.72   10.38   -1.31   0.000   0.200   0.000    0.00
   1.000   21.33   10.12   -2.02   0.000   0.200   0.000    0.00
   1.050   22.15    7.44   -2.25   0.000   0.200   0.000    0.00
   1.100   21.97    6.14   -2.09   0.000   0.200   0.000    0.00
   1.150   22.52    5.64   -0.53   0.000   0.200   0.000    0.00
   1.200   22.91    3.51   -1.28   0.000   0.200   0.000    0.00
   1.250   22.22    3.78   -2.10   0.000   0.200   0.000    0.00
   1.300   21.87    5.78   -1.95   0.000   0.200   0.000    0.00
   1.350   21.54    5.63   -2.17   0.000   0.200   0.000    0.00
   1.400   21.76    6.71   -1.94   0.000   0.200   0.000    0.00
   1.450   22.17    8.82   -0.49   0.000   0.200   0.000    0.00
   1.500   22.42    7.96    1.44   0.000   0.200   0.000    0.00
   1.550   22.46    7.87    0.87   0.000   0.200   0.000    0.00
   1.600   22.69    9.52   -0.09   0.000   0.200   0.000    0.00
   1.650   22.58    8.56    0.45   0.000   0.200   0.000    0.00
   1.700   21.75    9.43    0.31   0.000   0.200   0.000    0.00
   1.750   22.02    8.00    0.86   0.000   0.200   0.000    0.00
   1.800   22.00    7.90    1.67   0.000   0.200   0.000    0.00
   1.850   22.83   12.68    1.30   0.000   0.200   0.000    0.00
   1.900   21.74   10.38   -0.25   0.000   0.200   0.000    0.00
   1.950   21.25    8.76    0.30   0.000   0.200   0.000    0.00
   2.000   22.01   10.05   -0.52   0.000   0.200   0.000    0.00
   2.050   22.53    9.14   -1.33   0.000   0.200   0.000    0.00
   2.100   23.14    9.44   -1.12   0.000   0.200   0.000    0.00
   2.150   22.05    9.06    0.78   0.000   0.200   0.000    0.00
   2.200   21.51    9.31    1.88   0.000   0.200   0.000    0.00
   2.250   21.02    6.49    1.57   0.000   0.200   0.000    0.00
   2.300   21.11    4.89    0.85   0.000   0.200   0.000    0.00
   2.350   21.44    5.07   -0.43   0.000   0.200   0.000    0.00
   2.400   22.07    7.14    0.39   0.000   0.200   0.000    0.00
   2.450   22.46    7.05   -0.51   0.000   0.200   0.000    0.00
   2.500   22.82    5.62   -0.59   0.000   0.200   0.000    0.00
   2.550   22.76    6.03   -0.27   0.000   0.200   0.000    0.00
   2.600   22.24    6.02   -1.85   0.000   0.200   0.000    0.00
   2.650   21.41    5.90   -1.71   0.000   0.200   0.000    0.00
   2.700   21.96    5.03   -0.77   0.000   0.200   0.000    0.00
   2.750   22.79    4.51   -0.44   0.000   0.200   0.000    0.00
   2.800   22.63    3.48   -0.36   0.000   0.200   0.000    0.00
   2.850   22.66    0.43   -0.75   0.000   0.200   0.000    0.00
   2.900   21.95    1.29   -0.30   0.000   0.200   0.000    0.00
   2.950   21.91    0.58   -0.73   0.000   0.200   0.000    0.00
   3.000   22.15   -1.20   -0.63   0.000   0.200   0.000    0.00
   3.050   21.65   -0.19   -1.11   0.000   0.200   0.000    0.00
   3.100   22.66   -2.76   -1.17   0.000   0.200   0.000    0.00
   3.150   22.44   -1.49   -1.79   0.000   0.200   0.000    0.00
   3.200   22.66   -2.69   -0.99   0.000   0.200   0.000    0.00
   3.250   22.25   -1.34   -1.53   0.000   0.200   0.000    0.00
   3.300   21.62   -2.79   -0.63   0.000   0.200   0.000    0.00
   3.350   20.95   -1.86   -0.78   0.000   0.200   0.000    0.00
   3.400   21.47   -2.89   -0.90   0.000   0.200   0.000    0.00
   3.450   21.65   -3.52   -1.18   0.000   0.200   0.000    0.00
   3.500   21.10   -4.30   -1.46   0.000   0.200   0.000    0.00
   3.550   20.60   -2.70   -1.08   0.000   0.200   0.000    0.00
   3.600   20.52   -3.62   -0.78   0.000   0.200   0.000    0.00
   3.650   20.58   -2.89   -0.30   0.000   0.200   0.000    0.00
   3.700   20.31   -3.39   -0.72   0.000   0.200   0.000    0.00
   3.750   20.70   -2.62   -1.35   0.000   0.200   0.000    0.00
   3.800   21.32   -0.78   -1.74   0.000   0.200   0.000    0.00
   3.850   21.47    0.51   -2.00   0.000   0.200   0.000    0.00
   3.900   20.82   -1.22   -2.62   0.000   0.200   0.000    0.00
   3.950   20.33   -0.36   -2.98   0.000   0.200   0.000    0.00
   4.000   21.07   -0.56   -2.89   0.000   0.200   0.000    0.00
   4.050   21.89   -0.10   -2.17   0.000   0.200   0.000    0.00
   4.100   22.26    1.51   -2.63   0.000   0.200   0.000    0.00
   4.150   21.64    5.64   -1.08   0.000   0.200   0.000    0.00
   4.200   21.77    7.84   -0.34   0.000   0.200   0.000    0.00
   4.250   22.69    8.05   -0.71   0.000   0.200   0.000    0.00
   4.300   21.66    9.69   -0.63   0.000   0.200   0.000    0.00
   4.350   21.66   10.09   -0.50   0.000   0.200   0.000    0.00
   4.400   21.09   10.62    0.61   0.000   0.200   0.000    0.00
   4.450   20.92    9.34    1.14   0.000   0.200   0.000    0.00
   4.500   20.70    7.70    0.12   0.000   0.200   0.000    0.00
   4.550   20.35    8.11    0.32   0.000   0.200   0.000    0.00
   4.600   19.86    9.66    0.66   0.000   0.200   0.000    0.00
   4.650   19.25    7.14    0.66   0.000   0.200   0.000    0.00
   4.700   19.51    6.29   -0.37   0.000   0.200   0.000    0.00
   4.750   20.05    4.84   -0.12   0.000   0.200   0.000    0.00
   4.800   20.14    5.48    0.34   0.000   0.200   0.000    0.00
   4.850   20.53    6.92    1.03   0.000   0.200   0.000    0.00
   4.900   19.73    6.47    0.41   0.000   0.200   0.000    0.00
   4.950   19.10    8.00    1.19   0.000   0.200   0.000    0.00
   5.000   19.57    6.96    0.63   0.000   0.200   0.000    0.00
   5.050   19.15    5.62    0.48   0.000   0.200   0.000    0.00
   5.100   19.33    4.69    0.38   0.000   0.200   0.000    0.00
   5.150   19.19    4.36   -0.03   0.000   0.200   0.000    0.00
   5.200   19.34    2.50    0.27   0.000   0.200   0.000    0.00
   5.250   19.84    3.52    1.00   0.000   0.200   0.000    0.00
   5.300   20.86    2.93    0.92   0.000   0.200   0.000    0.00
   5.350   20.72    2.29    0.68   0.000   0.200   0.000    0.00
   5.400   21.81    2.72    0.98   0.000   0.200   0.000    0.00
   5.450   21.66    3.77    1.01   0.000   0.200   0.000    0.00
   5.500   21.93   -1.14   -0.23   0.000   0.200   0.000    0.00
   5.550   22.08   -1.99   -0.55   0.000   0.200   0.000    0.00
   5.600   21.41    1.40   -0.26   0.000   0.200   0.000    0.00
   5.650   21.98    1.53    0.35   0.000   0.200   0.000    0.00
   5.700   21.83    0.84   -0.81   0.000   0.200   0.000    0.00
   5.750   20.84   -1.87   -1.84   0.000   0.200   0.000    0.00
   5.800   21.19   -2.56   -1.12   0.000   0.200   0.000    0.00
   5.850   21.52   -1.00   -1.20   0.000   0.200   0.000    0.00
   5.900   20.86   -2.06   -1.89   0.000   0.200   0.000    0.00
   5.950   21.51   -2.95   -1.25   0.000   0.200   0.000    0.00
   6.000   21.89   -2.25   -0.84   0.000   0.200   0.000    0.00
   6.050   21.79   -1.16   -1.29   0.000   0.200   0.000    0.00
   6.100   22.37   -1.09   -0.86   0.000   0.200   0.000    0.00
   6.150   22.68   -3.57   -0.36   0.000   0.200   0.000    0.00
   6.200   23.87   -4.37   -1.31   0.000   0.200   0.000    0.00
   6.250   22.90   -4.72   -1.97   0.000   0.200   0.000    0.00
   6.300   23.00   -5.70   -1.46   0.000   0.200   0.000    0.00
   6.350   24.12   -5.11   -1.96   0.000   0.200   0.000    0.00
   6.400   24.42   -4.49   -1.85   0.000   0.200   0.000    0.00
   6.450   23.75   -3.51   -2.30   0.000   0.200   0.000    0.00
   6.500   23.45   -5.56   -2.26   0.000   0.200   0.000    0.00
   6.550   23.18   -9.01   -2.77   0.000   0.200   0.000    0.00
   6.600   24.08   -8.54   -2.53   0.000   0.200   0.000    0.00
   6.650   24.33   -8.06   -3.77   0.000   0.200   0.000    0.00
   6.700   24.61   -7.39   -4.27   0.000   0.200   0.000    0.00
   6.750   25.04   -8.60   -3.55   0.000   0.200   0.000    0.00
   6.800   25.09   -6.13   -3.67   0.000   0.200   0.000    0.00
   6.850   25.44   -5.28   -4.11   0.000   0.200   0.000    0.00
   6.900   25.03   -4.07   -4.07   0.000   0.200   0.000    0.00
   6.950   25.20   -6.73   -3.95   0.000   0.200   0.000    0.00
   7.000   25.89   -7.85   -3.41   0.000   0.200   0.000    0.00
   7.050   26.17   -6.20   -1.87   0.000   0.200   0.000    0.00
   7.100   25.42   -4.87   -1.98   0.000   0.200   0.000    0.00
   7.150   26.33   -5.51   -1.58   0.000   0.200   0.000    0.00
   7.200   26.40   -5.74   -1.90   0.000   0.200   0.000    0.00
   7.250   27.41   -4.10   -2.09   0.000   0.200   0.000    0.00
   7.300   26.88   -2.82   -1.82   0.000   0.200   0.000    0.00
   7.350   27.23   -3.92   -3.55   0.000   0.200   0.000    0.00
   7.400   27.14   -2.60   -3.76   0.000   0.200   0.000    0.00
   7.450   26.91    0.52   -3.87   0.000   0.200   0.000    0.00
   7.500   27.51   -0.33   -2.87   0.000   0.200   0.000    0.00
   7.550   26.95   -1.39   -3.13   0.000   0.200   0.000    0.00
   7.600   26.73    0.12   -3.28   0.000   0.200   0.000    0.00
   7.650   25.97   -0.43   -3.11   0.000   0.200   0.000    0.00
   7.700   26.84   -1.28   -2.54   0.000   0.200   0.000    0.00
   7.750   26.63   -2.60   -2.36   0.000   0.200   0.000    0.00
   7.800   27.01   -2.90   -1.72   0.000   0.200   0.000    0.00
   7.850   27.87   -4.97   -2.10   0.000   0.200   0.000    0.00
   7.900   27.92   -2.63   -2.99   0.000   0.200   0.000    0.00
   7.950   28.49   -0.98   -3.00   0.000   0.200   0.000    0.00
   8.000   28.20   -2.65   -2.26   0.000   0.200   0.000    0.00
   8.050   28.28   -2.82   -1.80   0.000   0.200   0.000    0.00
   8.100   27.76   -2.98   -1.04   0.000   0.200   0.000    0.00
   8.150   28.18   -3.35   -1.08   0.000   0.200   0.000    0.00
   8.200   27.60   -3.88   -1.01   0.000   0.200   0.000    0.00
   8.250   27.92   -4.21   -1.96   0.000   0.200   0.000    0.00
   8.300   28.14   -3.22   -1.85   0.000   0.200   0.000    0.00
   8.350   27.14   -3.73   -1.50   0.000   0.200   0.000    0.00
   8.400   26.60   -2.04   -1.74   0.000   0.200   0.000    0.00
   8.450   27.45   -2.31   -2.09   0.000   0.200   0.000    0.00
   8.500   26.50   -4.69   -2.08   0.000   0.200   0.000    0.00
   8.550   25.64   -5.08   -2.26   0.000   0.200   0.000    0.00
   8.600   25.49   -4.66   -1.71   0.000   0.200   0.000    0.00
   8.650   26.05   -5.58   -1.51   0.000   0.200   0.000    0.00
   8.700   26.15   -4.08   -1.39   0.000   0.200   0.000    0.00
   8.750   26.11   -2.51   -1.15   0.000   0.200   0.000    0.00
   8.800   26.26   -3.46   -2.38   0.000   0.200   0.000    0.00
   8.850   26.11   -1.84   -2.98   0.000   0.200   0.000    0.00
   8.900   25.56   -1.86   -2.43   0.000   0.200   0.000    0.00
   8.950   24.67   -1.12   -2.92   0.000   0.200   0.000    0.00
   9.000   24.88   -1.72   -3.30   0.000   0.200   0.000    0.00
   9.050   24.72   -2.88   -3.04   0.000   0.200   0.000    0.00
   9.100   24.42   -2.62   -3.11   0.000   0.200   0.000    0.00
   9.150   24.73   -3.41   -2.31   0.000   0.200   0.000    0.00
   9.200   24.41   -2.74   -1.96   0.000   0.200   0.000    0.00
   9.250   24.08   -3.56   -1.35   0.000   0.200   0.000    0.00
   9.300   23.95   -3.67   -1.07   0.000   0.200   0.000    0.00
   9.350   23.12   -3.09   -0.77   0.000   0.200   0.000    0.00
   9.400   23.63   -1.65   -0.98   0.000   0.200   0.000    0.00
   9.450   23.77   -1.27   -0.87   0.000   0.200   0.000    0.00
   9.500   23.78   -4.01   -1.36   0.000   0.200   0.000    0.00
   9.550   23.86   -4.04   -1.18   0.000   0.200   0.000    0.00
   9.600   23.28   -4.49   -0.05   0.000   0.200   0.000    0.00
   9.650   23.57   -3.05    0.90   0.000   0.200   0.000    0.00
   9.700   23.08   -1.77    0.33   0.000   0.200   0.000    0.00
   9.750   23.23   -3.03    0.77   0.000   0.200   0.000    0.00
   9.800   23.41   -2.31    1.31   0.000   0.200   0.000    0.00
   9.850   24.19   -1.28    1.49   0.000   0.200   0.000    0.00
   9.900   24.31   -2.81    1.55   0.000   0.200   0.000    0.00
   9.950   23.59   -4.60    1.95   0.000   0.200   0.000    0.00
  10.000   23.06   -3.20    2.51   0.000   0.200   0.000    0.00
  10.050   23.21   -4.51    2.41   0.000   0.200   0.000    0.00
  10.100   23.11   -5.69    2.92   0.000   0.200   0.000    0.00
  10.150   24.35   -2.68    2.23   0.000   0.200   0.000    0.00
  10.200   24.71   -5.44    2.30   0.000   0.200   0.000    0.00
  10.250   24.76   -3.36    1.74   0.000   0.200   0.000    0.00
  10.300   24.46   -4.48    0.77   0.000   0.200   0.000    0.00
  10.350   24.41   -5.12    0.35   0.000   0.200   0.000    0.00
  10.400   24.39   -3.37    0.50   0.000   0.200   0.000    0.00
  10.450   24.49   -4.15    0.49   0.000   0.200   0.000    0.00
  10.500   24.32   -5.66   -0.38   0.000   0.200   0.000    0.00
  10.550   23.82   -6.62   -0.46   0.000   0.200   0.000    0.00
  10.600   24.29   -6.29   -1.40   0.000   0.200   0.000    0.00
  10.650   24.26   -7.40   -0.82   0.000   0.200   0.000    0.00
  10.700   23.83   -6.34   -0.67   0.000   0.200   0.000    0.00
  10.750   23.73   -6.29   -1.41   0.000   0.200   0.000    0.00
  10.800   23.68   -3.75   -0.98   0.000   0.200   0.000    0.00
  10.850   22.55   -3.56   -0.40   0.000   0.200   0.000    0.00
  10.900   22.49   -3.89   -0.07   0.000   0.200   0.000    0.00
  10.950   22.93   -3.77   -0.47   0.000   0.200   0.000    0.00
  11.000   22.89   -3.53   -0.11   0.000   0.200   0.000    0.00
  11.050   22.09   -3.67   -0.95   0.000   0.200   0.000    0.00
  11.100   22.44   -3.71   -0.95   0.000   0.200   0.000    0.00
  11.150   21.62   -2.58   -0.49   0.000   0.200   0.000    0.00
  11.200   21.18   -3.77    0.13   0.000   0.200   0.000    0.00
  11.250   21.66   -4.79    0.94   0.000   0.200   0.000    0.00
  11.300   21.63   -7.01    1.58   0.000   0.200   0.000    0.00
  11.350   22.19   -5.98    2.49   0.000   0.200   0.000    0.00
  11.400   22.03   -6.35    1.58   0.000   0.200   0.000    0.00
  11.450   22.00   -5.81    1.64   0.000   0.200   0.000    0.00
  11.500   22.12   -4.73    1.92   0.000   0.200   0.000    0.00
  11.550   22.39   -4.25    1.38   0.000   0.200   0.000    0.00
  11.600   21.78   -2.97    1.89   0.000   0.200   0.000    0.00
  11.650   21.71   -2.33    1.33   0.000   0.200   0.000    0.00
  11.700   22.12   -1.41    0.84   0.000   0.200   0.000    0.00
  11.750   22.52   -1.69    1.11   0.000   0.200   0.000    0.00
  11.800   23.35   -1.81    1.92   0.000   0.200   0.000    0.00
  11.850   22.49   -0.68    1.51   0.000   0.200   0.000    0.00
  11.900   22.16   -0.31    1.45   0.000   0.200   0.000    0.00
  11.950   22.86   -1.59    1.32   0.000   0.200   0.000    0.00
  12.000   22.13   -2.21    1.13   0.000   0.200   0.000    0.00
  12.050   22.80   -2.24    0.23   0.000   0.200   0.000    0.00
  12.100   22.86   -5.25    0.58   0.000   0.200   0.000    0.00
  12.150   23.50   -3.20   -0.17   0.000   0.200   0.000    0.00
  12.200   22.98   -3.08    0.11   0.000   0.200   0.000    0.00
  12.250   22.98    0.67    0.37   0.000   0.200   0.000    0.00
  12.300   22.91   -2.19   -0.29   0.000   0.200   0.000    0.00
  12.350   22.89   -2.32    0.61   0.000   0.200   0.000    0.00
  12.400   22.92   -3.17    0.57   0.000   0.200   0.000    0.00
  12.450   23.01   -3.61    1.28   0.000   0.200   0.000    0.00
  12.500   22.99   -4.50    0.89   0.000   0.200   0.000    0.00
  12.550   23.67   -2.90    1.28   0.000   0.200   0.000    0.00
  12.600   23.92   -3.54    0.82   0.000   0.200   0.000    0.00
  12.650   24.22   -3.20    0.81   0.000   0.200   0.000    0.00
  12.700   24.09   -3.21    0.67   0.000   0.200   0.000    0.00
  12.750   24.12   -4.15    1.50   0.000   0.200   0.000    0.00
  12.800   23.12   -3.72    1.12   0.000   0.200   0.000    0.00
  12.850   23.43   -2.83    1.23   0.000   0.200   0.000    0.00
  12.900   23.14   -2.59    0.84   0.000   0.200   0.000    0.00
  12.950   23.34   -1.03   -0.03   0.000   0.200   0.000    0.00
  13.000   23.03    0.48    1.13   0.000   0.200   0.000    0.00
  13.050   23.71   -2.13    0.71   0.000   0.200   0.000    0.00
  13.100   24.37   -4.81    0.35   0.000   0.200   0.000    0.00
  13.150   24.59   -3.28   -0.19   0.000   0.200   0.000    0.00
  13.200   24.42   -4.12   -0.02   0.000   0.200   0.000    0.00
  13.250   25.09   -4.90   -0.27   0.000   0.200   0.000    0.00
  13.300   25.31   -4.59    0.06   0.000   0.200   0.000    0.00
  13.350   25.17   -4.50    0.16   0.000   0.200   0.000    0.00
  13.400   25.17   -3.35   -1.52   0.000   0.200   0.000    0.00
  13.450   25.41   -3.80   -2.02   0.000   0.200   0.000    0.00
  13.500   24.49   -2.77   -1.57   0.000   0.200   0.000    0.00
  13.550   23.82   -4.39   -0.73   0.000   0.200   0.000    0.00
  13.600   24.11   -3.92   -0.02   0.000   0.200   0.000    0.00
  13.650   23.83   -6.36   -0.27   0.000   0.200   0.000    0.00
  13.700   23.78   -4.71   -0.62   0.000   0.200   0.000    0.00
  13.750   24.13   -4.93   -0.11   0.000   0.200   0.000    0.00
  13.800   24.42   -2.89    0.75   0.000   0.200   0.000    0.00
  13.850   24.67   -4.50   -0.47   0.000   0.200   0.000    0.00
  13.900   24.00   -7.10    0.76   0.000   0.200   0.000    0.00
  13.950   23.85   -6.20    1.62   0.000   0.200   0.000    0.00
  14.000   23.59   -8.45    0.78   0.000   0.200   0.000    0.00
  14.050   23.14   -7.09    0.14   0.000   0.200   0.000    0.00
  14.100   22.43   -4.53    0.07   0.000   0.200   0.000    0.00
  14.150   22.47   -5.08    0.04   0.000   0.200   0.000    0.00
  14.200   22.88   -1.46   -0.14   0.000   0.200   0.000    0.00
  14.250   22.79   -0.43    0.43   0.000   0.200   0.000    0.00
  14.300   23.84   -0.34    0.15   0.000   0.200   0.000    0.00
  14.350   23.88   -2.32    0.15   0.000   0.200   0.000    0.00
  14.400   23.45   -0.47   -0.47   0.000   0.200   0.000    0.00
  14.450   23.72   -2.82   -0.84   0.000   0.200   0.000    0.00
  14.500   24.64   -3.54   -0.34   0.000   0.200   0.000    0.00
  14.550   24.36   -3.39   -0.53   0.000   0.200   0.000    0.00
  14.600   23.76   -4.23   -0.20   0.000   0.200   0.000    0.00
  14.650   23.98   -4.71   -0.64   0.000   0.200   0.000    0.00
  14.700   24.39   -3.90   -0.58   0.000   0.200   0.000    0.00
  14.750   24.83   -4.86   -0.53   0.000   0.200   0.000    0.00
  14.800   24.21   -5.92   -0.81   0.000   0.200   0.000    0.00
  14.850   23.91   -3.96    0.44   0.000   0.200   0.000    0.00
  14.900   23.49   -4.07    1.00   0.000   0.200   0.000    0.00
  14.950   24.00   -4.00    0.10   0.000   0.200   0.000    0.00
  15.000   23.98   -4.19   -0.12   0.000   0.200   0.000    0.00
  15.050   24.03   -5.44    0.21   0.000   0.200   0.000    0.00
  15.100   24.66   -5.26   -1.03   0.000   0.200   0.000    0.00
  15.150   24.84   -1.78   -0.41   0.000   0.200   0.000    0.00
  15.200   25.04   -2.96   -0.02   0.000   0.200   0.000    0.00
  15.250   24.97   -2.69   -0.67   0.000   0.200   0.000    0.00
  15.300   25.06   -4.70   -0.79   0.000   0.200   0.000    0.00
  15.350   25.15   -5.57   -0.75   0.000   0.200   0.000    0.00
  15.400   25.85   -4.52    0.06   0.000   0.200   0.000    0.00
  15.450   25.51   -6.17   -0.03   0.000   0.200   0.000    0.00
  15.500   24.61   -4.67   -1.15   0.000   0.200   0.000    0.00
  15.550   25.77   -5.79   -0.88   0.000   0.200   0.000    0.00
  15.600   26.25   -4.60    0.11   0.000   0.200   0.000    0.00
  15.650   25.81   -5.30   -0.29   0.000   0.200   0.000    0.00
  15.700   25.73   -4.44   -0.72   0.000   0.200   0.000    0.00
  15.750   25.16   -7.67   -0.27   0.000   0.200   0.000    0.00
  15.800   24.82   -6.40   -0.50   0.000   0.200   0.000    0.00
  15.850   24.83   -5.39   -1.22   0.000   0.200   0.000    0.00
  15.900   24.97   -6.53   -0.82   0.000   0.200   0.000    0.00
  15.950   25.12   -9.01   -1.00   0.000   0.200   0.000    0.00
  16.000   24.95   -8.74   -0.69   0.000   0.200   0.000    0.00
  16.050   24.68   -7.86   -0.50   0.000   0.200   0.000    0.00
  16.100   23.48   -5.82   -0.03   0.000   0.200   0.000    0.00
  16.150   23.65   -5.01   -0.50   0.000   0.200   0.000    0.00
  16.200   23.80   -4.79   -0.52   0.000   0.200   0.000    0.00
  16.250   24.68   -3.38   -1.56   0.000   0.200   0.000    0.00
  16.300   25.17   -3.92   -0.99   0.000   0.200   0.000    0.00
  16.350   24.36   -4.34   -1.05   0.000   0.200   0.000    0.00
  16.400   24.01   -5.54   -0.41   0.000   0.200   0.000    0.00
  16.450   24.05   -5.11    0.16   0.000   0.200   0.000    0.00
  16.500   24.19   -2.37   -0.10   0.000   0.200   0.000    0.00
  16.550   23.82   -2.42    1.20   0.000   0.200   0.000    0.00
  16.600   24.88   -4.81    1.22   0.000   0.200   0.000    0.00
  16.650   25.02   -6.57    0.64   0.000   0.200   0.000    0.00
  16.700   25.37   -6.21    1.15   0.000   0.200   0.000    0.00
  16.750   25.08   -5.55    1.14   0.000   0.200   0.000    0.00
  16.800   25.45   -3.91    1.51   0.000   0.200   0.000    0.00
  16.850   25.26   -3.47    0.50   0.000   0.200   0.000    0.00
  16.900   25.44   -4.64   -0.14   0.000   0.200   0.000    0.00
  16.950   25.63   -5.44   -0.13   0.000   0.200   0.000    0.00
  17.000   24.97   -5.54    1.01   0.000   0.200   0.000    0.00
  17.050   24.59   -4.30    1.01   0.000   0.200   0.000    0.00
  17.100   24.62   -4.76    0.40   0.000   0.200   0.000    0.00
  17.150   24.69   -5.01    1.17   0.000   0.200   0.000    0.00
  17.200   25.14   -5.01    0.97   0.000   0.200   0.000    0.00
  17.250   24.55   -3.79    1.36   0.000   0.200   0.000    0.00
  17.300   24.97   -2.81    0.97   0.000   0.200   0.000    0.00
  17.350   25.23   -3.05    1.09   0.000   0.200   0.000    0.00
  17.400   25.87   -2.93    0.78   0.000   0.200   0.000    0.00
  17.450   26.05   -2.68    0.20   0.000   0.200   0.000    0.00
  17.500   24.76   -3.23    0.12   0.000   0.200   0.000    0.00
  17.550   24.97   -2.39   -0.25   0.000   0.200   0.000    0.00
  17.600   24.89   -1.61    0.04   0.000   0.200   0.000    0.00
  17.650   24.77   -1.43   -0.56   0.000   0.200   0.000    0.00
  17.700   24.05   -2.16   -1.95   0.000   0.200   0.000    0.00
  17.750   24.06   -2.27   -1.72   0.000   0.200   0.000    0.00
  17.800   24.19   -2.24   -1.30   0.000   0.200   0.000    0.00
  17.850   24.13   -5.07   -0.23   0.000   0.200   0.000    0.00
  17.900   24.22   -3.64    0.57   0.000   0.200   0.000    0.00
  17.950   25.29   -3.03    1.41   0.000   0.200   0.000    0.00
  18.000   24.52   -3.57    1.39   0.000   0.200   0.000    0.00
  18.050   23.91   -6.55    1.84   0.000   0.200   0.000    0.00
  18.100   23.97   -7.43    1.79   0.000   0.200   0.000    0.00
  18.150   23.59   -7.01    2.27   0.000   0.200   0.000    0.00
  18.200   24.14   -6.60    1.75   0.000   0.200   0.000    0.00
  18.250   25.70   -6.86    1.08   0.000   0.200   0.000    0.00
  18.300   25.74   -7.03    1.91   0.000   0.200   0.000    0.00
  18.350   26.05   -7.99    2.61   0.000   0.200   0.000    0.00
  18.400   25.86  -11.06    2.65   0.000   0.200   0.000    0.00
  18.450   25.90   -8.97    3.36   0.000   0.200   0.000    0.00
  18.500   26.64   -7.94    2.57   0.000   0.200   0.000    0.00
  18.550   25.75   -8.68    2.19   0.000   0.200   0.000    0.00
  18.600   26.51   -7.89    2.67   0.000   0.200   0.000    0.00
  18.650   26.59   -7.81    3.33   0.000   0.200   0.000    0.00
  18.700   26.28   -8.78    1.82   0.000   0.200   0.000    0.00
  18.750   26.65   -7.02    1.52   0.000   0.200   0.000    0.00
  18.800   26.00   -7.65    1.55   0.000   0.200   0.000    0.00
  18.850   25.52   -6.18    0.84   0.000   0.200   0.000    0.00
  18.900   24.68   -8.45    1.83   0.000   0.200   0.000    0.00
  18.950   24.24   -6.53    1.82   0.000   0.200   0.000    0.00
  19.000   24.25   -3.62    1.54   0.000   0.200   0.000    0.00
  19.050   24.85   -5.36    0.95   0.000   0.200   0.000    0.00
  19.100   24.91   -3.30    0.25   0.000   0.200   0.000    0.00
  19.150   25.21   -3.46    0.43   0.000   0.200   0.000    0.00
  19.200   25.79   -3.43    0.89   0.000   0.200   0.000    0.00
  19.250   26.33   -3.04    0.93   0.000   0.200   0.000    0.00
  19.300   25.38   -3.95    0.39   0.000   0.200   0.000    0.00
  19.350   25.38   -5.01   -0.55   0.000   0.200   0.000    0.00
  19.400   25.17   -3.93    0.69   0.000   0.200   0.000    0.00
  19.450   25.39   -4.74    0.98   0.000   0.200   0.000    0.00
  19.500   25.99   -4.35    1.36   0.000   0.200   0.000    0.00
  19.550   25.84   -3.09    2.05   0.000   0.200   0.000    0.00
  19.600   26.68   -3.66    1.61   0.000   0.200   0.000    0.00
  19.650   26.66   -4.18    1.60   0.000   0.200   0.000    0.00
  19.700   26.33   -1.53    1.72   0.000   0.200   0.000    0.00
  19.750   26.37   -1.84    1.79   0.000   0.200   0.000    0.00
  19.800   27.54   -3.42    1.09   0.000   0.200   0.000    0.00
  19.850   27.07   -3.31    1.23   0.000   0.200   0.000    0.00
  19.900   27.19   -4.38    0.31   0.000   0.200   0.000    0.00
  19.950   27.03   -4.01   -0.02   0.000   0.200   0.000    0.00
  20.000   27.43   -5.20    0.29   0.000   0.200   0.000    0.00
  20.050   26.75   -5.21   -0.31   0.000   0.200   0.000    0.00
  20.100   26.84   -3.64   -0.02   0.000   0.200   0.000    0.00
  20.150   26.40   -4.17    0.62   0.000   0.200   0.000    0.00
  20.200   26.33   -3.71    1.41   0.000   0.200   0.000    0.00
  20.250   26.61   -5.09    0.00   0.000   0.200   0.000    0.00
  20.300   27.41   -4.05    0.56   0.000   0.200   0.000    0.00
  20.350   27.84   -4.70    1.17   0.000   0.200   0.000    0.00
  20.400   27.90   -4.68    1.19   0.000   0.200   0.000    0.00
  20.450   27.34   -2.96    2.32   0.000   0.200   0.000    0.00
  20.500   27.65   -2.60    2.03   0.000   0.200   0.000    0.00
  20.550   28.36   -4.83    1.63   0.000   0.200   0.000    0.00
  20.600   28.73   -6.04    2.14   0.000   0.200   0.000    0.00
  20.650   28.36   -6.67    1.93   0.000   0.200   0.000    0.00
  20.700   28.48   -5.78    1.67   0.000   0.200   0.000    0.00
  20.750   28.65   -4.60    2.29   0.000   0.200   0.000    0.00
  20.800   28.64   -5.56    1.96   0.000   0.200   0.000    0.00
  20.850   28.20   -5.00    1.22   0.000   0.200   0.000    0.00
  20.900   28.56   -4.71    0.99   0.000   0.200   0.000    0.00
  20.950   28.96   -5.27    0.56   0.000   0.200   0.000    0.00
  21.000   27.92   -3.89    0.59   0.000   0.200   0.000    0.00
  21.050   27.03   -4.03   -0.20   0.000   0.200   0.000    0.00
  21.100   26.66   -4.46   -0.08   0.000   0.200   0.000    0.00
  21.150   27.06   -5.68   -1.30   0.000   0.200   0.000    0.00
  21.200   26.65   -6.47   -0.85   0.000   0.200   0.000    0.00
  21.250   26.96   -6.75   -0.67   0.000   0.200   0.000    0.00
  21.300   27.55   -8.04   -0.53   0.000   0.200   0.000    0.00
  21.350   27.91   -8.62   -0.08   0.000   0.200   0.000    0.00
  21.400   27.50   -7.31    0.03   0.000   0.200   0.000    0.00
  21.450   27.40   -9.33    0.29   0.000   0.200   0.000    0.00
  21.500   26.88  -10.76    0.83   0.000   0.200   0.000    0.00
  21.550   26.70   -8.68    0.48   0.000   0.200   0.000    0.00
  21.600   27.33   -9.01    0.39   0.000   0.200   0.000    0.00
  21.650   28.04   -9.84    0.82   0.000   0.200   0.000    0.00
  21.700   28.05   -9.39    0.19   0.000   0.200   0.000    0.00
  21.750   27.38   -8.59   -0.04   0.000   0.200   0.000    0.00
  21.800   27.43   -8.38    0.23   0.000   0.200   0.000    0.00
  21.850   28.23   -7.43    0.50   0.000   0.200   0.000    0.00
  21.900   29.60   -7.12   -0.58   0.000   0.200   0.000    0.00
  21.950   28.94   -7.54   -0.82   0.000   0.200   0.000    0.00
  22.000   28.24   -7.24   -1.24   0.000   0.200   0.000    0.00
  22.050   27.37   -7.28   -1.31   0.000   0.200   0.000    0.00
  22.100   27.02   -7.28   -0.69   0.000   0.200   0.000    0.00
  22.150   26.35   -9.25   -0.58   0.000   0.200   0.000    0.00
  22.200   26.84   -8.53   -0.48   0.000   0.200   0.000    0.00
  22.250   25.78   -7.00   -1.23   0.000   0.200   0.000    0.00
  22.300   25.43   -8.10   -0.79   0.000   0.200   0.000    0.00
  22.350   25.60   -8.06   -0.25   0.000   0.200   0.000    0.00