! This hub-height wind-speed file was generated by TurbSim (v1.06.00, 21-Sep-2012) on 16-Jun-2018 at 18:36:00.
!
! The requested statistics for this data were:
!    Mean Total Wind Speed =   13.000 m/s
!    Turbulence Intensity  =   24.640%
!
!   Time  HorSpd  WndDir  VerSpd  HorShr  VerShr  LnVShr  GstSpd
!  (sec)   (m/s)   (deg)   (m/s)     (-)     (-)     (-)   (m/s)
   0.000   15.39   12.53   -0.53   0.000   0.200   0.000    0.00
   0.050   15.19   15.51    0.50   0.000   0.200   0.000    0.00
   0.100   14.75   13.17    0.79   0.000   0.200   0.000    0.00
   0.150   14.54   10.29    0.07   0.000   0.200   0.000    0.00
   0.200   14.88    8.42   -0.57   0.000   0.200   0.000    0.00
   0.250   14.47    7.96   -0.99   0.000   0.200   0.000    0.00
   0.300   14.06   11.04   -0.25   0.000   0.200   0.000    0.00
   0.350   14.04    9.52   -0.77   0.000   0.200   0.000    0.00
   0.400   13.47   10.19    0.42   0.000   0.200   0.000    0.00
   0.450   12.79    7.10    1.59   0.000   0.200   0.000    0.00
   0.500   13.03    3.03    1.73   0.000   0.200   0.000    0.00
   0.550   12.84    1.02    1.98   0.000   0.200   0.000    0.00
   0.600   12.63    3.88    1.02   0.000   0.200   0.000    0.00
   0.650   13.31    2.50    0.98   0.000   0.200   0.000    0.00
   0.700   13.82    4.62    1.45   0.000   0.200   0.000    0.00
   0.750   13.75    3.06    1.42   0.000   0.200   0.000    0.00
   0.800   13.70    1.10    0.61   0.000   0.200   0.000    0.00
   0.850   13.91    1.72    0.88   0.000   0.200   0.000    0.00
   0.900   13.96    2.21    0.45   0.000   0.200   0.000    0.00
   0.950   13.23    2.10    0.28   0.000   0.200   0.000    0.00
   1.000   14.06    7.33   -0.26   0.000   0.200   0.000    0.00
   1.050   14.53    9.94   -0.88   0.000   0.200   0.000    0.00
   1.100   13.98    7.43   -0.79   0.000   0.200   0.000    0.00
   1.150   13.42   10.99   -0.05   0.000   0.200   0.000    0.00
   1.200   13.91   12.42   -0.77   0.000   0.200   0.000    0.00
   1.250   14.17   10.76   -1.14   0.000   0.200   0.000    0.00
   1.300   13.98    6.79   -0.47   0.000   0.200   0.000    0.00
   1.350   13.51    9.66    0.21   0.000   0.200   0.000    0.00
   1.400   13.57    4.81    0.39   0.000   0.200   0.000    0.00
   1.450   13.22    5.39    0.66   0.000   0.200   0.000    0.00
   1.500   12.96    6.91   -1.10   0.000   0.200   0.000    0.00
   1.550   13.57    4.47   -0.38   0.000   0.200   0.000    0.00
   1.600   13.65    2.39    1.11   0.000   0.200   0.000    0.00
   1.650   12.82    2.45    0.72   0.000   0.200   0.000    0.00
   1.700   13.14    2.30    0.88   0.000   0.200   0.000    0.00
   1.750   13.32    2.40    0.24   0.000   0.200   0.000    0.00
   1.800   13.34    1.09   -1.10   0.000   0.200   0.000    0.00
   1.850   13.50    0.41   -0.66   0.000   0.200   0.000    0.00
   1.900   13.48    7.31   -0.13   0.000   0.200   0.000    0.00
   1.950   13.15    4.84   -1.28   0.000   0.200   0.000    0.00
   2.000   12.97    3.71   -2.08   0.000   0.200   0.000    0.00
   2.050   13.32    2.20   -1.49   0.000   0.200   0.000    0.00
   2.100   13.86    1.37   -2.62   0.000   0.200   0.000    0.00
   2.150   14.41    3.65   -1.65   0.000   0.200   0.000    0.00
   2.200   14.91    2.00   -1.35   0.000   0.200   0.000    0.00
   2.250   15.35    3.94   -1.23   0.000   0.200   0.000    0.00
   2.300   15.22    0.47   -1.54   0.000   0.200   0.000    0.00
   2.350   15.54    1.39   -1.66   0.000   0.200   0.000    0.00
   2.400   15.34    4.52    0.53   0.000   0.200   0.000    0.00
   2.450   15.38    3.28    0.66   0.000   0.200   0.000    0.00
   2.500   16.47    4.44   -0.09   0.000   0.200   0.000    0.00
   2.550   15.83    5.52    0.35   0.000   0.200   0.000    0.00
   2.600   14.99    3.42   -0.33   0.000   0.200   0.000    0.00
   2.650   15.47    3.46   -1.14   0.000   0.200   0.000    0.00
   2.700   15.94    7.10   -0.70   0.000   0.200   0.000    0.00
   2.750   16.55    6.50   -1.03   0.000   0.200   0.000    0.00
   2.800   16.41    4.98   -0.59   0.000   0.200   0.000    0.00
   2.850   16.37    3.63   -0.88   0.000   0.200   0.000    0.00
   2.900   16.48   -2.67   -0.34   0.000   0.200   0.000    0.00
   2.950   16.33   -1.38   -1.38   0.000   0.200   0.000    0.00
   3.000   16.57   -2.64   -1.14   0.000   0.200   0.000    0.00
   3.050   16.65   -3.34   -0.28   0.000   0.200   0.000    0.00
   3.100   16.45   -2.97    0.41   0.000   0.200   0.000    0.00
   3.150   16.47   -0.23    0.87   0.000   0.200   0.000    0.00
   3.200   17.05    0.75    0.46   0.000   0.200   0.000    0.00
   3.250   16.31    2.89   -0.76   0.000   0.200   0.000    0.00
   3.300   15.94    2.00   -0.49   0.000   0.200   0.000    0.00
   3.350   15.71   -2.64   -1.23   0.000   0.200   0.000    0.00
   3.400   15.81    3.45   -1.69   0.000   0.200   0.000    0.00
   3.450   15.56    5.59   -1.49   0.000   0.200   0.000    0.00
   3.500   16.67    9.34   -1.52   0.000   0.200   0.000    0.00
   3.550   16.09    8.21   -1.40   0.000   0.200   0.000    0.00
   3.600   16.56    6.89   -1.05   0.000   0.200   0.000    0.00
   3.650   17.46    5.12   -0.13   0.000   0.200   0.000    0.00
   3.700   17.29    4.75   -0.27   0.000   0.200   0.000    0.00
   3.750   16.52    4.76   -1.05   0.000   0.200   0.000    0.00
   3.800   16.28    6.55   -1.07   0.000   0.200   0.000    0.00
   3.850   15.40    7.01   -0.79   0.000   0.200   0.000    0.00
   3.900   15.88    5.84    0.26   0.000   0.200   0.000    0.00
   3.950   16.20    6.82    0.56   0.000   0.200   0.000    0.00
   4.000   16.92    7.74    0.28   0.000   0.200   0.000    0.00
   4.050   17.47    6.74    0.93   0.000   0.200   0.000    0.00
   4.100   16.70    6.71    1.69   0.000   0.200   0.000    0.00
   4.150   16.46    3.70    0.11   0.000   0.200   0.000    0.00
   4.200   16.03    4.67   -0.45   0.000   0.200   0.000    0.00
   4.250   16.13    3.72    0.17   0.000   0.200   0.000    0.00
   4.300   15.85    5.61    0.30   0.000   0.200   0.000    0.00
   4.350   15.53    4.61    0.28   0.000   0.200   0.000    0.00
   4.400   15.20    8.36    0.21   0.000   0.200   0.000    0.00
   4.450   15.65    4.97    0.42   0.000   0.200   0.000    0.00
   4.500   15.93    6.46   -0.38   0.000   0.200   0.000    0.00
   4.550   16.80    4.54   -0.71   0.000   0.200   0.000    0.00
   4.600   16.26    4.19    0.58   0.000   0.200   0.000    0.00
   4.650   15.87    4.83    0.19   0.000   0.200   0.000    0.00
   4.700   15.64    8.55    0.41   0.000   0.200   0.000    0.00
   4.750   16.10   10.01    0.25   0.000   0.200   0.000    0.00
   4.800   15.94    6.53    0.50   0.000   0.200   0.000    0.00
   4.850   15.41   10.14    0.99   0.000   0.200   0.000    0.00
   4.900   15.50   12.97    1.25   0.000   0.200   0.000    0.00
   4.950   15.90   14.20    1.57   0.000   0.200   0.000    0.00
   5.000   16.31   14.93    0.92   0.000   0.200   0.000    0.00
   5.050   16.68   12.52    0.24   0.000   0.200   0.000    0.00
   5.100   16.91   10.22   -0.16   0.000   0.200   0.000    0.00
   5.150   16.91    8.70   -0.10   0.000   0.200   0.000    0.00
   5.200   17.76    7.68   -0.46   0.000   0.200   0.000    0.00
   5.250   16.11    7.04   -0.05   0.000   0.200   0.000    0.00
   5.300   15.99    8.06   -0.21   0.000   0.200   0.000    0.00
   5.350   15.54    7.60   -0.10   0.000   0.200   0.000    0.00
   5.400   16.24    7.78   -0.29   0.000   0.200   0.000    0.00
   5.450   17.12   10.41   -0.48   0.000   0.200   0.000    0.00
   5.500   17.54    8.30   -0.15   0.000   0.200   0.000    0.00
   5.550   17.73    7.51    0.66   0.000   0.200   0.000    0.00
   5.600   17.71    8.77   -0.05   0.000   0.200   0.000    0.00
   5.650   17.34    7.70   -0.73   0.000   0.200   0.000    0.00
   5.700   17.13    8.93   -1.22   0.000   0.200   0.000    0.00
   5.750   17.05    5.92   -1.40   0.000   0.200   0.000    0.00
   5.800   16.68    2.63   -0.51   0.000   0.200   0.000    0.00
   5.850   17.08    3.41   -0.32   0.000   0.200   0.000    0.00
   5.900   17.14    2.10    0.38   0.000   0.200   0.000    0.00
   5.950   17.97    5.71   -0.60   0.000   0.200   0.000    0.00
   6.000   18.31    4.15   -0.79   0.000   0.200   0.000    0.00
   6.050   18.09   -0.32   -0.04   0.000   0.200   0.000    0.00
   6.100   17.97    0.28    0.00   0.000   0.200   0.000    0.00
   6.150   17.85    1.09   -0.38   0.000   0.200   0.000    0.00
   6.200   18.21    1.83   -0.11   0.000   0.200   0.000    0.00
   6.250   18.44    5.23   -0.85   0.000   0.200   0.000    0.00
   6.300   17.57    6.13   -0.10   0.000   0.200   0.000    0.00
   6.350   17.11    6.46    0.29   0.000   0.200   0.000    0.00
   6.400   17.33    1.93    0.40   0.000   0.200   0.000    0.00
   6.450   17.43    1.35    1.04   0.000   0.200   0.000    0.00
   6.500   18.27    0.59   -0.40   0.000   0.200   0.000    0.00
   6.550   18.34    4.41    0.57   0.000   0.200   0.000    0.00
   6.600   18.55    3.55    1.01   0.000   0.200   0.000    0.00
   6.650   19.26    2.40    1.06   0.000   0.200   0.000    0.00
   6.700   19.72    4.78   -0.08   0.000   0.200   0.000    0.00
   6.750   18.90    4.67    0.33   0.000   0.200   0.000    0.00
   6.800   19.44    6.31   -0.47   0.000   0.200   0.000    0.00
   6.850   19.50    5.17   -0.60   0.000   0.200   0.000    0.00
   6.900   18.16    4.27   -0.20   0.000   0.200   0.000    0.00
   6.950   18.19    6.77   -0.48   0.000   0.200   0.000    0.00
   7.000   18.42    4.73   -0.22   0.000   0.200   0.000    0.00
   7.050   18.74    6.00   -0.37   0.000   0.200   0.000    0.00
   7.100   18.64    5.86    0.20   0.000   0.200   0.000    0.00
   7.150   18.16    7.35    0.22   0.000   0.200   0.000    0.00
   7.200   17.82    7.67   -0.02   0.000   0.200   0.000    0.00
   7.250   19.03    8.68    0.53   0.000   0.200   0.000    0.00
   7.300   19.63   14.16    1.01   0.000   0.200   0.000    0.00
   7.350   19.77   12.28    1.20   0.000   0.200   0.000    0.00
   7.400   19.92   11.89    0.57   0.000   0.200   0.000    0.00
   7.450   19.58   13.04    1.75   0.000   0.200   0.000    0.00
   7.500   19.67   12.79    1.25   0.000   0.200   0.000    0.00
   7.550   18.94   15.90    0.08   0.000   0.200   0.000    0.00
   7.600   19.15   13.77    0.32   0.000   0.200   0.000    0.00
   7.650   19.05   10.74    0.64   0.000   0.200   0.000    0.00
   7.700   18.37    9.86    0.83   0.000   0.200   0.000    0.00
   7.750   17.78   10.24    1.32   0.000   0.200   0.000    0.00
   7.800   17.26   12.52    1.85   0.000   0.200   0.000    0.00
   7.850   17.35    9.48    1.48   0.000   0.200   0.000    0.00
   7.900   17.44    6.65    0.69   0.000   0.200   0.000    0.00
   7.950   16.88    6.83   -0.13   0.000   0.200   0.000    0.00
   8.000   17.05    5.13    0.22   0.000   0.200   0.000    0.00
   8.050   17.06    6.49    1.07   0.000   0.200   0.000    0.00
   8.100   16.84    1.33    0.50   0.000   0.200   0.000    0.00
   8.150   16.23   -1.11   -0.64   0.000   0.200   0.000    0.00
   8.200   16.22   -0.90   -0.85   0.000   0.200   0.000    0.00
   8.250   16.08   -2.86   -0.78   0.000   0.200   0.000    0.00
   8.300   16.04   -6.50    0.98   0.000   0.200   0.000    0.00
   8.350   15.50   -8.23    0.69   0.000   0.200   0.000    0.00
   8.400   15.78   -8.99   -0.92   0.000   0.200   0.000    0.00
   8.450   15.88   -9.28   -1.96   0.000   0.200   0.000    0.00
   8.500   16.36   -9.12   -2.00   0.000   0.200   0.000    0.00
   8.550   16.80  -11.45   -0.69   0.000   0.200   0.000    0.00
   8.600   17.11   -7.97   -0.37   0.000   0.200   0.000    0.00
   8.650   17.24   -8.42   -0.88   0.000   0.200   0.000    0.00
   8.700   16.16   -9.04   -1.18   0.000   0.200   0.000    0.00
   8.750   16.38   -8.13   -0.99   0.000   0.200   0.000    0.00
   8.800   16.72   -7.79    0.28   0.000   0.200   0.000    0.00
   8.850   16.16   -6.25    0.28   0.000   0.200   0.000    0.00
   8.900   16.80   -7.06    0.86   0.000   0.200   0.000    0.00
   8.950   16.27   -4.63    1.67   0.000   0.200   0.000    0.00
   9.000   16.88   -5.61    1.16   0.000   0.200   0.000    0.00
   9.050   17.04   -6.39    0.88   0.000   0.200   0.000    0.00
   9.100   17.09   -3.20    1.03   0.000   0.200   0.000    0.00
   9.150   16.13   -7.17   -0.16   0.000   0.200   0.000    0.00
   9.200   15.98   -6.40    0.34   0.000   0.200   0.000    0.00
   9.250   16.34   -6.26    0.43   0.000   0.200   0.000    0.00
   9.300   16.40   -2.83    2.02   0.000   0.200   0.000    0.00
   9.350   17.64   -3.28    1.74   0.000   0.200   0.000    0.00
   9.400   16.90   -3.60    0.94   0.000   0.200   0.000    0.00
   9.450   16.64    0.24    1.29   0.000   0.200   0.000    0.00
   9.500   17.07   -1.77    1.03   0.000   0.200   0.000    0.00
   9.550   16.98   -2.59    1.27   0.000   0.200   0.000    0.00
   9.600   16.58    1.09    0.70   0.000   0.200   0.000    0.00
   9.650   16.64   -1.23    0.50   0.000   0.200   0.000    0.00
   9.700   16.09   -5.15    0.46   0.000   0.200   0.000    0.00
   9.750   16.58   -3.63   -0.27   0.000   0.200   0.000    0.00
   9.800   17.45   -1.98   -0.56   0.000   0.200   0.000    0.00
   9.850   17.75   -1.00   -0.94   0.000   0.200   0.000    0.00
   9.900   17.58   -2.91   -0.87   0.000   0.200   0.000    0.00
   9.950   16.63   -1.07    0.28   0.000   0.200   0.000    0.00
  10.000   16.84    1.24    0.15   0.000   0.200   0.000    0.00
  10.050   16.97   -0.95    0.28   0.000   0.200   0.000    0.00
  10.100   16.44   -5.52   -0.19   0.000   0.200   0.000    0.00
  10.150   16.49   -0.91    0.09   0.000   0.200   0.000    0.00
  10.200   16.07   -1.31   -0.16   0.000   0.200   0.000    0.00
  10.250   15.42    0.14    0.27   0.000   0.200   0.000    0.00
  10.300   15.58    1.67    0.79   0.000   0.200   0.000    0.00
  10.350   15.43    4.60   -0.12   0.000   0.200   0.000    0.00
  10.400   15.47    4.43   -0.65   0.000   0.200   0.000    0.00
  10.450   15.53    2.80   -0.62   0.000   0.200   0.000    0.00
  10.500   15.88   -0.27   -0.32   0.000   0.200   0.000    0.00
  10.550   16.46   -3.17    0.34   0.000   0.200   0.000    0.00
  10.600   16.28   -2.81    0.42   0.000   0.200   0.000    0.00
  10.650   16.79   -2.09    1.07   0.000   0.200   0.000    0.00
  10.700   17.01    1.72    0.85   0.000   0.200   0.000    0.00
  10.750   16.88    2.02    0.16   0.000   0.200   0.000    0.00
  10.800   16.86    1.29    0.26   0.000   0.200   0.000    0.00
  10.850   16.69    3.81    0.17   0.000   0.200   0.000    0.00
  10.900   16.70    5.47   -0.57   0.000   0.200   0.000    0.00
  10.950   16.85    3.29   -1.58   0.000   0.200   0.000    0.00
  11.000   16.83    6.31   -0.60   0.000   0.200   0.000    0.00
  11.050   16.79    6.70   -1.38   0.000   0.200   0.000    0.00
  11.100   16.26    5.55   -0.93   0.000   0.200   0.000    0.00
  11.150   15.62    6.78   -1.37   0.000   0.200   0.000    0.00
  11.200   15.78    7.00   -1.34   0.000   0.200   0.000    0.00
  11.250   16.57    6.43   -1.40   0.000   0.200   0.000    0.00
  11.300   16.17    7.47   -1.07   0.000   0.200   0.000    0.00
  11.350   17.00    8.87   -0.81   0.000   0.200   0.000    0.00
  11.400   16.92    8.24   -1.06   0.000   0.200   0.000    0.00
  11.450   16.95    7.64   -1.57   0.000   0.200   0.000    0.00
  11.500   16.07    3.63   -1.83   0.000   0.200   0.000    0.00
  11.550   15.37    6.69   -1.93   0.000   0.200   0.000    0.00
  11.600   14.58    4.50   -1.48   0.000   0.200   0.000    0.00
  11.650   14.19   -0.05   -1.17   0.000   0.200   0.000    0.00
  11.700   14.60   -1.40   -2.20   0.000   0.200   0.000    0.00
  11.750   14.99   -0.89   -3.07   0.000   0.200   0.000    0.00
  11.800   15.55    1.11   -2.71   0.000   0.200   0.000    0.00
  11.850   14.77   -0.80   -2.11   0.000   0.200   0.000    0.00
  11.900   15.30   -1.26   -1.61   0.000   0.200   0.000    0.00
  11.950   14.19    1.26   -1.87   0.000   0.200   0.000    0.00
  12.000   14.50    4.45   -2.06   0.000   0.200   0.000    0.00
  12.050   15.77    4.28   -2.43   0.000   0.200   0.000    0.00
  12.100   15.59    5.50   -3.39   0.000   0.200   0.000    0.00
  12.150   16.00    6.35   -3.61   0.000   0.200   0.000    0.00
  12.200   16.34    7.32   -2.57   0.000   0.200   0.000    0.00
  12.250   16.36    7.02   -4.03   0.000   0.200   0.000    0.00
  12.300   16.24    8.05   -4.05   0.000   0.200   0.000    0.00
  12.350   17.54    8.95   -4.74   0.000   0.200   0.000    0.00
  12.400   17.27    6.76   -3.70   0.000   0.200   0.000    0.00
  12.450   16.33    6.42   -4.08   0.000   0.200   0.000    0.00
  12.500   16.88    5.18   -3.45   0.000   0.200   0.000    0.00
  12.550   16.06    2.56   -3.58   0.000   0.200   0.000    0.00
  12.600   15.49   -1.18   -2.44   0.000   0.200   0.000    0.00
  12.650   15.36   -2.13   -1.31   0.000   0.200   0.000    0.00
  12.700   15.51   -1.14   -0.85   0.000   0.200   0.000    0.00
  12.750   15.44   -1.33   -0.79   0.000   0.200   0.000    0.00
  12.800   14.71   -3.61   -0.88   0.000   0.200   0.000    0.00
  12.850   15.23   -3.42    0.36   0.000   0.200   0.000    0.00
  12.900   14.80   -0.04   -0.11   0.000   0.200   0.000    0.00
  12.950   14.06    0.76   -0.81   0.000   0.200   0.000    0.00
  13.000   13.81    2.48   -1.66   0.000   0.200   0.000    0.00
  13.050   13.49    3.66   -0.70   0.000   0.200   0.000    0.00
  13.100   13.81    1.59   -0.61   0.000   0.200   0.000    0.00
  13.150   13.47   -1.01   -1.15   0.000   0.200   0.000    0.00
  13.200   13.64   -1.15   -1.27   0.000   0.200   0.000    0.00
  13.250   12.87    1.24   -2.12   0.000   0.200   0.000    0.00
  13.300   13.18    4.26   -1.85   0.000   0.200   0.000    0.00
  13.350   13.80    5.72   -1.43   0.000   0.200   0.000    0.00
  13.400   15.01    8.88   -1.02   0.000   0.200   0.000    0.00
  13.450   15.00    7.78   -0.83   0.000   0.200   0.000    0.00
  13.500   14.68    4.78   -1.17   0.000   0.200   0.000    0.00
  13.550   14.85    6.83   -0.35   0.000   0.200   0.000    0.00
  13.600   13.90    8.16   -0.14   0.000   0.200   0.000    0.00
  13.650   13.37    5.99   -0.38   0.000   0.200   0.000    0.00
  13.700   13.81    3.11   -1.49   0.000   0.200   0.000    0.00
  13.750   14.71    1.55   -1.76   0.000   0.200   0.000    0.00
  13.800   14.42   -2.72   -1.05   0.000   0.200   0.000    0.00
  13.850   15.28   -3.79   -1.94   0.000   0.200   0.000    0.00
  13.900   15.02   -3.09   -1.76   0.000   0.200   0.000    0.00
  13.950   14.60   -1.91   -2.10   0.000   0.200   0.000    0.00
  14.000   14.96    1.63   -0.90   0.000   0.200   0.000    0.00
  14.050   14.27    0.34   -0.56   0.000   0.200   0.000    0.00
  14.100   14.12   -2.09   -0.21   0.000   0.200   0.000    0.00
  14.150   14.10    0.17   -0.42   0.000   0.200   0.000    0.00
  14.200   14.01   -2.94    0.78   0.000   0.200   0.000    0.00
  14.250   14.40   -1.20    0.96   0.000   0.200   0.000    0.00
  14.300   15.23    2.70    0.36   0.000   0.200   0.000    0.00
  14.350   14.54    4.87    0.57   0.000   0.200   0.000    0.00
  14.400   14.73    3.27    0.76   0.000   0.200   0.000    0.00
  14.450   14.38    7.18    0.64   0.000   0.200   0.000    0.00
  14.500   14.63   11.26   -0.04   0.000   0.200   0.000    0.00
  14.550   14.88   10.18   -0.15   0.000   0.200   0.000    0.00
  14.600   14.31   12.20    0.02   0.000   0.200   0.000    0.00
  14.650   13.66   10.96    0.13   0.000   0.200   0.000    0.00
  14.700   13.97    8.15   -0.30   0.000   0.200   0.000    0.00
  14.750   13.75   10.12   -0.97   0.000   0.200   0.000    0.00
  14.800   14.01   12.25   -0.67   0.000   0.200   0.000    0.00
  14.850   13.60   11.63    0.95   0.000   0.200   0.000    0.00
  14.900   12.65   10.57    1.45   0.000   0.200   0.000    0.00
  14.950   13.49   12.61    1.64   0.000   0.200   0.000    0.00
  15.000   12.89   13.32    2.09   0.000   0.200   0.000    0.00
  15.050   12.49   12.62    2.88   0.000   0.200   0.000    0.00
  15.100   11.79   11.56    3.09   0.000   0.200   0.000    0.00
  15.150   12.55   12.88    1.77   0.000   0.200   0.000    0.00
  15.200   12.63   14.47    1.08   0.000   0.200   0.000    0.00
  15.250   11.95   14.82    0.33   0.000   0.200   0.000    0.00
  15.300   12.64   10.96    0.17   0.000   0.200   0.000    0.00
  15.350   12.36   11.66    0.98   0.000   0.200   0.000    0.00
  15.400   11.58    6.56    1.29   0.000   0.200   0.000    0.00
  15.450   10.92    7.79    2.19   0.000   0.200   0.000    0.00
  15.500   10.71   15.65    2.15   0.000   0.200   0.000    0.00
  15.550   11.38   14.14    2.78   0.000   0.200   0.000    0.00
  15.600   11.41   11.15    3.27   0.000   0.200   0.000    0.00
  15.650   11.27    8.20    3.58   0.000   0.200   0.000    0.00
  15.700   11.63    9.65    3.95   0.000   0.200   0.000    0.00
  15.750   11.89    6.49    3.43   0.000   0.200   0.000    0.00
  15.800   11.59    4.42    3.53   0.000   0.200   0.000    0.00
  15.850   11.38    3.09    3.47   0.000   0.200   0.000    0.00
  15.900   11.78    3.73    3.22   0.000   0.200   0.000    0.00
  15.950   11.74    6.74    3.68   0.000   0.200   0.000    0.00
  16.000   12.59    4.05    3.70   0.000   0.200   0.000    0.00
  16.050   12.59    6.11    3.83   0.000   0.200   0.000    0.00
  16.100   13.11    7.99    4.00   0.000   0.200   0.000    0.00
  16.150   13.71    9.29    4.01   0.000   0.200   0.000    0.00
  16.200   13.98    8.20    3.19   0.000   0.200   0.000    0.00
  16.250   14.58   12.78    2.22   0.000   0.200   0.000    0.00
  16.300   14.46   10.59    2.58   0.000   0.200   0.000    0.00
  16.350   15.08   10.39    2.90   0.000   0.200   0.000    0.00
  16.400   14.25   13.12    3.67   0.000   0.200   0.000    0.00
  16.450   14.64   16.44    3.51   0.000   0.200   0.000    0.00
  16.500   15.11   17.64    3.09   0.000   0.200   0.000    0.00
  16.550   14.31   16.05    2.57   0.000   0.200   0.000    0.00
  16.600   14.28   14.84    1.93   0.000   0.200   0.000    0.00
  16.650   14.37   16.11    1.73   0.000   0.200   0.000    0.00
  16.700   14.69   14.15    1.42   0.000   0.200   0.000    0.00
  16.750   14.67   13.12    1.77   0.000   0.200   0.000    0.00
  16.800   14.53   12.96    1.62   0.000   0.200   0.000    0.00
  16.850   14.23   14.76    0.99   0.000   0.200   0.000    0.00
  16.900   13.92   13.99    1.41   0.000   0.200   0.000    0.00
  16.950   14.03    8.66    1.36   0.000   0.200   0.000    0.00
  17.000   14.02    6.29    1.02   0.000   0.200   0.000    0.00
  17.050   13.40    3.26    1.26   0.000   0.200   0.000    0.00
  17.100   12.95    0.92   -0.36   0.000   0.200   0.000    0.00
  17.150   12.55   -2.08   -0.45   0.000   0.200   0.000    0.00
  17.200   13.08    0.57    0.92   0.000   0.200   0.000    0.00
  17.250   12.98    3.74    0.74   0.000   0.200   0.000    0.00
  17.300   13.27    2.60    1.32   0.000   0.200   0.000    0.00
  17.350   13.57    2.51    1.49   0.000   0.200   0.000    0.00
  17.400   13.64   -0.10    2.26   0.000   0.200   0.000    0.00
  17.450   13.95   -1.07    2.33   0.000   0.200   0.000    0.00
  17.500   14.19    1.74    1.50   0.000   0.200   0.000    0.00
  17.550   14.81    3.02    1.10   0.000   0.200   0.000    0.00
  17.600   14.54    5.71    0.89   0.000   0.200   0.000    0.00
  17.650   13.98    4.93    1.37   0.000   0.200   0.000    0.00
  17.700   14.03   -0.41    2.34   0.000   0.200   0.000    0.00
  17.750   13.99   -0.08    2.48   0.000   0.200   0.000    0.00
  17.800   14.41    0.87    2.60   0.000   0.200   0.000    0.00
  17.850   14.31    4.69    2.09   0.000   0.200   0.000    0.00
  17.900   14.70    2.42    2.71   0.000   0.200   0.000    0.00
  17.950   14.81    0.52    1.72   0.000   0.200   0.000    0.00
  18.000   13.96    3.91    1.00   0.000   0.200   0.000    0.00
  18.050   14.84    8.48    1.08   0.000   0.200   0.000    0.00
  18.100   15.56    8.71    0.26   0.000   0.200   0.000    0.00
  18.150   15.58    9.06    0.08   0.000   0.200   0.000    0.00
  18.200   14.93    8.74    0.19   0.000   0.200   0.000    0.00
  18.250   14.47    5.58    0.19   0.000   0.200   0.000    0.00
  18.300   15.30    3.31   -0.27   0.000   0.200   0.000    0.00
  18.350   15.87   -1.67   -0.33   0.000   0.200   0.000    0.00
  18.400   15.43   -2.17    0.14   0.000   0.200   0.000    0.00
  18.450   14.64   -1.32   -0.01   0.000   0.200   0.000    0.00
  18.500   14.61   -2.30   -0.71   0.000   0.200   0.000    0.00
  18.550   14.95   -1.37   -1.97   0.000   0.200   0.000    0.00
  18.600   15.00   -3.55   -0.98   0.000   0.200   0.000    0.00
  18.650   14.98   -0.72   -0.18   0.000   0.200   0.000    0.00
  18.700   14.81    0.57   -0.05   0.000   0.200   0.000    0.00
  18.750   15.19   -1.48   -0.21   0.000   0.200   0.000    0.00
  18.800   14.72    0.45   -0.47   0.000   0.200   0.000    0.00
  18.850   15.06    0.52   -0.30   0.000   0.200   0.000    0.00
  18.900   15.33    0.43    0.37   0.000   0.200   0.000    0.00
  18.950   15.70    1.27    0.21   0.000   0.200   0.000    0.00
  19.000   15.74   -0.82    0.10   0.000   0.200   0.000    0.00
  19.050   15.53   -3.66    0.20   0.000   0.200   0.000    0.00
  19.100   15.15   -0.25    0.28   0.000   0.200   0.000    0.00
  19.150   15.72    0.21    0.19   0.000   0.200   0.000    0.00
  19.200   15.87    0.68    1.01   0.000   0.200   0.000    0.00
  19.250   15.83   -2.60    1.12   0.000   0.200   0.000    0.00
  19.300   15.49    0.28    1.73   0.000   0.200   0.000    0.00
  19.350   15.93    4.66    1.42   0.000   0.200   0.000    0.00
  19.400   15.58    2.91    0.65   0.000   0.200   0.000    0.00
  19.450   16.01    7.53    0.30   0.000   0.200   0.000    0.00
  19.500   15.00    5.65    0.33   0.000   0.200   0.000    0.00
  19.550   14.12   -1.18    1.00   0.000   0.200   0.000    0.00
  19.600   14.57    0.26    0.14   0.000   0.200   0.000    0.00
  19.650   14.50    2.90   -0.29   0.000   0.200   0.000    0.00
  19.700   14.08    0.49    0.04   0.000   0.200   0.000    0.00
  19.750   13.87    1.53   -0.31   0.000   0.200   0.000    0.00
  19.800   13.85    0.31   -0.88   0.000   0.200   0.000    0.00
  19.850   14.23   -3.39   -0.44   0.000   0.200   0.000    0.00
  19.900   14.46   -3.47   -0.31   0.000   0.200   0.000    0.00
  19.950   14.66   -2.63    1.03   0.000   0.200   0.000    0.00
  20.000   14.96   -8.20    1.05   0.000   0.200   0.000    0.00
  20.050   14.66   -8.04    1.25   0.000   0.200   0.000    0.00
  20.100   15.39   -4.90    1.93   0.000   0.200   0.000    0.00
  20.150   15.28   -4.32    2.57   0.000   0.200   0.000    0.00
  20.200   14.69   -0.45    1.73   0.000   0.200   0.000    0.00
  20.250   15.18    0.82    0.24   0.000   0.200   0.000    0.00
  20.300   14.78   -3.16   -0.84   0.000   0.200   0.000    0.00
  20.350   14.61   -2.40   -1.27   0.000   0.200   0.000    0.00
  20.400   14.67   -0.31   -1.00   0.000   0.200   0.000    0.00
  20.450   14.65    3.19   -0.41   0.000   0.200   0.000    0.00
  20.500   14.53    1.83   -1.25   0.000   0.200   0.000    0.00
  20.550   13.66    0.49   -1.18   0.000   0.200   0.000    0.00
  20.600   13.44   -0.83   -0.72   0.000   0.200   0.000    0.00
  20.650   13.29   -0.93   -1.06   0.000   0.200   0.000    0.00
  20.700   13.66   -4.65    0.84   0.000   0.200   0.000    0.00
  20.750   14.33   -6.71    0.55   0.000   0.200   0.000    0.00
  20.800   14.15   -6.07    0.44   0.000   0.200   0.000    0.00
  20.850   14.30  -10.16   -0.16   0.000   0.200   0.000    0.00
  20.900   13.50   -7.07   -0.50   0.000   0.200   0.000    0.00
  20.950   13.99   -6.21   -0.43   0.000   0.200   0.000    0.00
  21.000   14.64   -4.60    0.58   0.000   0.200   0.000    0.00
  21.050   14.23   -5.49    0.51   0.000   0.200   0.000    0.00
  21.100   15.09   -2.76    0.24   0.000   0.200   0.000    0.00
  21.150   15.88   -1.66    0.97   0.000   0.200   0.000    0.00
  21.200   16.14   -2.64    1.25   0.000   0.200   0.000    0.00
  21.250   15.85   -2.95    1.63   0.000   0.200   0.000    0.00
  21.300   15.74   -6.46    0.87   0.000   0.200   0.000    0.00
  21.350   16.02   -9.38    1.04   0.000   0.200   0.000    0.00
  21.400   16.19   -9.05    1.65   0.000   0.200   0.000    0.00
  21.450   15.79   -7.99    2.47   0.000   0.200   0.000    0.00
  21.500   15.39   -5.48    2.25   0.000   0.200   0.000    0.00
  21.550   15.23   -6.91    1.61   0.000   0.200   0.000    0.00
  21.600   15.20   -6.81    1.67   0.000   0.200   0.000    0.00
  21.650   15.16   -6.48    1.91   0.000   0.200   0.000    0.00
  21.700   15.42   -3.43    1.85   0.000   0.200   0.000    0.00
  21.750   14.95    0.93    2.65   0.000   0.200   0.000    0.00
  21.800   15.08   -1.54    2.57   0.000   0.200   0.000    0.00
  21.850   14.91   -4.48    2.78   0.000   0.200   0.000    0.00
  21.900   14.39   -3.40    2.49   0.000   0.200   0.000    0.00
  21.950   14.12   -5.39    2.08   0.000   0.200   0.000    0.00
  22.000   14.08   -9.00    2.74   0.000   0.200   0.000    0.00
  22.050   14.58  -11.02    2.70   0.000   0.200   0.000    0.00
  22.100   15.12   -9.34    2.23   0.000   0.200   0.000    0.00
  22.150   14.44   -7.87    2.43   0.000   0.200   0.000    0.00
  22.200   14.33   -7.58    2.09   0.000   0.200   0.000    0.00
  22.250   14.29  -11.06    1.69   0.000   0.200   0.000    0.00
  22.300   14.90  -13.49    1.45   0.000   0.200   0.000    0.00
  22.350   14.02  -12.80    1.43   0.000   0.200   0.000    0.00