! This hub-height wind-speed file was generated by TurbSim (v1.06.00, 21-Sep-2012) on 16-Jun-2018 at 18:36:18.
!
! The requested statistics for this data were:
!    Mean Total Wind Speed =   17.000 m/s
!    Turbulence Intensity  =   20.740%
!
!   Time  HorSpd  WndDir  VerSpd  HorShr  VerShr  LnVShr  GstSpd
!  (sec)   (m/s)   (deg)   (m/s)     (-)     (-)     (-)   (m/s)
   0.000   19.67  -19.00    0.23   0.000   0.200   0.000    0.00
   0.050   19.91  -20.63    0.03   0.000   0.200   0.000    0.00
   0.100   21.13  -20.95   -0.27   0.000   0.200   0.000    0.00
   0.150   21.11  -18.41   -0.07   0.000   0.200   0.000    0.00
   0.200   20.92  -17.35    0.39   0.000   0.200   0.000    0.00
   0.250   21.24  -19.48    0.60   0.000   0.200   0.000    0.00
   0.300   20.71  -19.29   -0.36   0.000   0.200   0.000    0.00
   0.350   20.85  -19.80    0.43   0.000   0.200   0.000    0.00
   0.400   21.08  -16.05   -0.30   0.000   0.200   0.000    0.00
   0.450   22.06  -13.34    0.43   0.000   0.200   0.000    0.00
   0.500   21.89  -14.04    1.81   0.000   0.200   0.000    0.00
   0.550   21.31  -12.00    2.13   0.000   0.200   0.000    0.00
   0.600   20.97  -15.22    1.54   0.000   0.200   0.000    0.00
   0.650   21.70  -14.67    0.26   0.000   0.200   0.000    0.00
   0.700   20.88  -11.73   -0.07   0.000   0.200   0.000    0.00
   0.750   20.25  -12.20    0.19   0.000   0.200   0.000    0.00
   0.800   19.39  -10.42   -0.84   0.000   0.200   0.000    0.00
   0.850   18.97   -8.62   -1.34   0.000   0.200   0.000    0.00
   0.900   18.95   -8.53   -1.72   0.000   0.200   0.000    0.00
   0.950   19.13  -10.57   -1.45   0.000   0.200   0.000    0.00
   1.000   19.57   -7.83   -1.06   0.000   0.200   0.000    0.00
   1.050   18.41   -9.50   -1.57   0.000   0.200   0.000    0.00
   1.100   18.41   -8.30   -1.77   0.000   0.200   0.000    0.00
   1.150   16.87   -9.56   -1.83   0.000   0.200   0.000    0.00
   1.200   16.55  -10.76   -1.04   0.000   0.200   0.000    0.00
   1.250   16.76  -10.04   -0.16   0.000   0.200   0.000    0.00
   1.300   17.08  -12.14   -0.72   0.000   0.200   0.000    0.00
   1.350   17.87  -12.04   -0.02   0.000   0.200   0.000    0.00
   1.400   18.03  -11.17    0.11   0.000   0.200   0.000    0.00
   1.450   17.69  -12.40   -0.90   0.000   0.200   0.000    0.00
   1.500   17.10  -14.45   -0.70   0.000   0.200   0.000    0.00
   1.550   17.44  -14.46    0.51   0.000   0.200   0.000    0.00
   1.600   16.96  -15.44    0.72   0.000   0.200   0.000    0.00
   1.650   17.22  -12.34    1.41   0.000   0.200   0.000    0.00
   1.700   16.46  -12.93    1.62   0.000   0.200   0.000    0.00
   1.750   15.87  -14.70    1.56   0.000   0.200   0.000    0.00
   1.800   15.72  -18.03    2.21   0.000   0.200   0.000    0.00
   1.850   15.85  -19.74    2.21   0.000   0.200   0.000    0.00
   1.900   16.07  -19.51    1.05   0.000   0.200   0.000    0.00
   1.950   17.01  -19.55    1.18   0.000   0.200   0.000    0.00
   2.000   16.92  -18.52   -0.12   0.000   0.200   0.000    0.00
   2.050   16.22  -15.70   -0.17   0.000   0.200   0.000    0.00
   2.100   16.84  -15.32    0.20   0.000   0.200   0.000    0.00
   2.150   17.84  -17.11   -0.28   0.000   0.200   0.000    0.00
   2.200   17.33  -13.64   -0.73   0.000   0.200   0.000    0.00
   2.250   16.72  -14.44   -2.22   0.000   0.200   0.000    0.00
   2.300   16.78  -18.70   -2.33   0.000   0.200   0.000    0.00
   2.350   16.67  -17.96   -1.59   0.000   0.200   0.000    0.00
   2.400   16.13  -15.97   -1.70   0.000   0.200   0.000    0.00
   2.450   16.47  -15.50   -2.67   0.000   0.200   0.000    0.00
   2.500   15.53  -11.76   -3.25   0.000   0.200   0.000    0.00
   2.550   15.95  -16.70   -3.78   0.000   0.200   0.000    0.00
   2.600   16.37  -15.51   -2.96   0.000   0.200   0.000    0.00
   2.650   15.58  -16.93   -2.34   0.000   0.200   0.000    0.00
   2.700   16.53  -13.24   -0.37   0.000   0.200   0.000    0.00
   2.750   16.64   -8.33   -0.32   0.000   0.200   0.000    0.00
   2.800   17.08   -5.25   -0.92   0.000   0.200   0.000    0.00
   2.850   17.55   -8.45   -0.70   0.000   0.200   0.000    0.00
   2.900   18.33   -7.45   -1.29   0.000   0.200   0.000    0.00
   2.950   18.57   -8.96    0.12   0.000   0.200   0.000    0.00
   3.000   19.21  -10.25   -1.15   0.000   0.200   0.000    0.00
   3.050   18.77   -7.84   -1.24   0.000   0.200   0.000    0.00
   3.100   18.97   -5.50    0.10   0.000   0.200   0.000    0.00
   3.150   18.73   -8.25   -0.05   0.000   0.200   0.000    0.00
   3.200   19.07   -8.34    0.37   0.000   0.200   0.000    0.00
   3.250   18.92   -4.59    0.68   0.000   0.200   0.000    0.00
   3.300   18.08   -4.86   -0.13   0.000   0.200   0.000    0.00
   3.350   17.96   -6.99    1.65   0.000   0.200   0.000    0.00
   3.400   18.83   -8.38    1.16   0.000   0.200   0.000    0.00
   3.450   19.13   -6.73   -0.08   0.000   0.200   0.000    0.00
   3.500   19.23   -6.60    0.78   0.000   0.200   0.000    0.00
   3.550   18.83   -7.87    0.40   0.000   0.200   0.000    0.00
   3.600   18.66   -8.79    0.97   0.000   0.200   0.000    0.00
   3.650   18.38  -11.50    1.59   0.000   0.200   0.000    0.00
   3.700   17.01  -11.86    0.57   0.000   0.200   0.000    0.00
   3.750   18.18  -12.88    1.36   0.000   0.200   0.000    0.00
   3.800   19.45  -12.83    1.06   0.000   0.200   0.000    0.00
   3.850   19.37  -10.36    0.52   0.000   0.200   0.000    0.00
   3.900   19.52  -11.33    0.30   0.000   0.200   0.000    0.00
   3.950   20.27  -11.73    0.83   0.000   0.200   0.000    0.00
   4.000   19.44  -12.69    0.58   0.000   0.200   0.000    0.00
   4.050   18.59  -13.21    1.14   0.000   0.200   0.000    0.00
   4.100   19.65  -17.79    3.20   0.000   0.200   0.000    0.00
   4.150   20.26  -21.65    2.67   0.000   0.200   0.000    0.00
   4.200   20.78  -23.13    1.92   0.000   0.200   0.000    0.00
   4.250   21.51  -23.02    2.26   0.000   0.200   0.000    0.00
   4.300   22.51  -23.41    1.68   0.000   0.200   0.000    0.00
   4.350   23.32  -20.78    1.76   0.000   0.200   0.000    0.00
   4.400   22.96  -20.83    2.26   0.000   0.200   0.000    0.00
   4.450   21.74  -20.66    2.04   0.000   0.200   0.000    0.00
   4.500   21.45  -16.51    2.05   0.000   0.200   0.000    0.00
   4.550   21.09  -13.05    1.52   0.000   0.200   0.000    0.00
   4.600   20.92  -11.97   -0.06   0.000   0.200   0.000    0.00
   4.650   22.42  -13.55   -0.61   0.000   0.200   0.000    0.00
   4.700   22.47  -14.68    0.10   0.000   0.200   0.000    0.00
   4.750   22.37  -15.80   -0.04   0.000   0.200   0.000    0.00
   4.800   21.42  -13.92   -0.39   0.000   0.200   0.000    0.00
   4.850   20.53  -10.88    0.69   0.000   0.200   0.000    0.00
   4.900   21.49  -13.97    1.09   0.000   0.200   0.000    0.00
   4.950   21.33  -15.76    0.60   0.000   0.200   0.000    0.00
   5.000   20.17  -12.72    1.33   0.000   0.200   0.000    0.00
   5.050   19.91  -13.83    1.63   0.000   0.200   0.000    0.00
   5.100   20.35  -13.38    1.50   0.000   0.200   0.000    0.00
   5.150   20.88  -12.16    1.76   0.000   0.200   0.000    0.00
   5.200   20.99  -13.76    1.52   0.000   0.200   0.000    0.00
   5.250   22.59  -13.55    1.91   0.000   0.200   0.000    0.00
   5.300   22.80  -12.76    0.48   0.000   0.200   0.000    0.00
   5.350   21.38  -14.62    1.40   0.000   0.200   0.000    0.00
   5.400   21.26  -14.41    0.47   0.000   0.200   0.000    0.00
   5.450   21.47  -14.11    1.59   0.000   0.200   0.000    0.00
   5.500   20.96  -15.25    1.54   0.000   0.200   0.000    0.00
   5.550   20.19  -14.27    1.48   0.000   0.200   0.000    0.00
   5.600   20.09  -13.80    2.41   0.000   0.200   0.000    0.00
   5.650   19.60  -17.69    2.11   0.000   0.200   0.000    0.00
   5.700   18.79  -19.47    2.34   0.000   0.200   0.000    0.00
   5.750   18.61  -20.90    2.58   0.000   0.200   0.000    0.00
   5.800   19.31  -21.35    2.01   0.000   0.200   0.000    0.00
   5.850   19.81  -23.08    1.63   0.000   0.200   0.000    0.00
   5.900   19.10  -21.43    2.79   0.000   0.200   0.000    0.00
   5.950   19.30  -22.26    2.53   0.000   0.200   0.000    0.00
   6.000   19.60  -20.18    1.73   0.000   0.200   0.000    0.00
   6.050   19.32  -20.60    2.92   0.000   0.200   0.000    0.00
   6.100   19.72  -18.51    0.75   0.000   0.200   0.000    0.00
   6.150   20.09  -20.64    0.58   0.000   0.200   0.000    0.00
   6.200   19.93  -19.31    1.07   0.000   0.200   0.000    0.00
   6.250   20.05  -20.80    1.43   0.000   0.200   0.000    0.00
   6.300   19.26  -25.52    1.40   0.000   0.200   0.000    0.00
   6.350   18.85  -23.45    1.44   0.000   0.200   0.000    0.00
   6.400   19.79  -20.91    1.95   0.000   0.200   0.000    0.00
   6.450   19.97  -21.66    2.19   0.000   0.200   0.000    0.00
   6.500   20.43  -23.62    0.43   0.000   0.200   0.000    0.00
   6.550   20.05  -23.33   -0.40   0.000   0.200   0.000    0.00
   6.600   19.99  -21.97    0.43   0.000   0.200   0.000    0.00
   6.650   19.08  -16.69    0.26   0.000   0.200   0.000    0.00
   6.700   18.22  -12.54   -0.83   0.000   0.200   0.000    0.00
   6.750   19.15  -12.53   -1.91   0.000   0.200   0.000    0.00
   6.800   20.05   -9.98   -0.52   0.000   0.200   0.000    0.00
   6.850   21.23   -8.26   -1.12   0.000   0.200   0.000    0.00
   6.900   19.96   -9.08   -1.72   0.000   0.200   0.000    0.00
   6.950   19.80  -10.11   -1.78   0.000   0.200   0.000    0.00
   7.000   19.31  -12.19   -0.58   0.000   0.200   0.000    0.00
   7.050   18.94  -12.54   -0.90   0.000   0.200   0.000    0.00
   7.100   19.68  -11.21   -1.44   0.000   0.200   0.000    0.00
   7.150   19.40  -12.84   -0.72   0.000   0.200   0.000    0.00
   7.200   19.05  -10.02   -0.27   0.000   0.200   0.000    0.00
   7.250   19.20  -10.02   -0.65   0.000   0.200   0.000    0.00
   7.300   17.73   -7.25   -1.02   0.000   0.200   0.000    0.00
   7.350   17.13   -5.88   -1.43   0.000   0.200   0.000    0.00
   7.400   17.63   -5.79   -1.04   0.000   0.200   0.000    0.00
   7.450   18.74   -2.90   -0.82   0.000   0.200   0.000    0.00
   7.500   18.70   -7.48   -0.95   0.000   0.200   0.000    0.00
   7.550   18.74  -11.19   -1.58   0.000   0.200   0.000    0.00
   7.600   18.18   -9.77   -1.70   0.000   0.200   0.000    0.00
   7.650   17.79   -8.29   -0.41   0.000   0.200   0.000    0.00
   7.700   19.13  -12.24   -0.14   0.000   0.200   0.000    0.00
   7.750   18.53   -8.12    0.12   0.000   0.200   0.000    0.00
   7.800   18.28   -5.95    0.14   0.000   0.200   0.000    0.00
   7.850   18.59   -6.49    0.22   0.000   0.200   0.000    0.00
   7.900   18.53   -3.19   -0.03   0.000   0.200   0.000    0.00
   7.950   18.94   -1.03    1.32   0.000   0.200   0.000    0.00
   8.000   18.84    1.35    1.69   0.000   0.200   0.000    0.00
   8.050   19.03    2.46    0.72   0.000   0.200   0.000    0.00
   8.100   18.37   -1.20    0.39   0.000   0.200   0.000    0.00
   8.150   18.10   -0.23    0.33   0.000   0.200   0.000    0.00
   8.200   18.62   -3.48    1.08   0.000   0.200   0.000    0.00
   8.250   19.14   -2.81   -0.96   0.000   0.200   0.000    0.00
   8.300   19.62    0.92   -1.27   0.000   0.200   0.000    0.00
   8.350   18.56    1.89   -0.82   0.000   0.200   0.000    0.00
   8.400   17.95    0.18   -0.75   0.000   0.200   0.000    0.00
   8.450   17.73   -2.02   -0.18   0.000   0.200   0.000    0.00
   8.500   17.87   -0.85    0.06   0.000   0.200   0.000    0.00
   8.550   17.75   -6.37    0.10   0.000   0.200   0.000    0.00
   8.600   19.16   -1.67    1.18   0.000   0.200   0.000    0.00
   8.650   20.69   -1.28    2.24   0.000   0.200   0.000    0.00
   8.700   21.40   -6.88    1.19   0.000   0.200   0.000    0.00
   8.750   22.32   -6.86    0.64   0.000   0.200   0.000    0.00
   8.800   22.38   -6.23    0.78   0.000   0.200   0.000    0.00
   8.850   22.19   -5.78    1.72   0.000   0.200   0.000    0.00
   8.900   21.71   -7.42    3.10   0.000   0.200   0.000    0.00
   8.950   21.00   -4.91    2.21   0.000   0.200   0.000    0.00
   9.000   21.22   -6.03    2.25   0.000   0.200   0.000    0.00
   9.050   20.87   -6.29    2.72   0.000   0.200   0.000    0.00
   9.100   20.75   -6.73    2.18   0.000   0.200   0.000    0.00
   9.150   21.74   -5.42    2.62   0.000   0.200   0.000    0.00
   9.200   21.29   -4.45    2.46   0.000   0.200   0.000    0.00
   9.250   20.85   -6.76    2.27   0.000   0.200   0.000    0.00
   9.300   21.40   -4.81    1.87   0.000   0.200   0.000    0.00
   9.350   20.98   -5.67    1.83   0.000   0.200   0.000    0.00
   9.400   20.83   -2.24    1.27   0.000   0.200   0.000    0.00
   9.450   21.00   -0.71    0.02   0.000   0.200   0.000    0.00
   9.500   20.94    1.42   -0.15   0.000   0.200   0.000    0.00
   9.550   21.15    2.44   -0.36   0.000   0.200   0.000    0.00
   9.600   20.44    1.53   -0.68   0.000   0.200   0.000    0.00
   9.650   20.39    0.39   -1.00   0.000   0.200   0.000    0.00
   9.700   21.16    1.44   -0.80   0.000   0.200   0.000    0.00
   9.750   20.96   -1.05    0.00   0.000   0.200   0.000    0.00
   9.800   20.88    1.29    0.54   0.000   0.200   0.000    0.00
   9.850   22.03    1.06   -0.33   0.000   0.200   0.000    0.00
   9.900   20.84   -0.10   -0.83   0.000   0.200   0.000    0.00
   9.950   20.40    0.31   -0.52   0.000   0.200   0.000    0.00
  10.000   19.84    2.77   -1.76   0.000   0.200   0.000    0.00
  10.050   20.30    1.66   -1.82   0.000   0.200   0.000    0.00
  10.100   20.96   -0.97   -1.75   0.000   0.200   0.000    0.00
  10.150   21.46   -1.65   -2.54   0.000   0.200   0.000    0.00
  10.200   20.62   -4.64   -1.59   0.000   0.200   0.000    0.00
  10.250   20.15   -5.50   -1.21   0.000   0.200   0.000    0.00
  10.300   19.88   -6.02   -1.45   0.000   0.200   0.000    0.00
  10.350   19.89   -6.20   -1.01   0.000   0.200   0.000    0.00
  10.400   19.46   -2.37   -1.31   0.000   0.200   0.000    0.00
  10.450   19.28   -0.04   -1.00   0.000   0.200   0.000    0.00
  10.500   19.60    0.12   -1.55   0.000   0.200   0.000    0.00
  10.550   19.25   -1.78   -0.79   0.000   0.200   0.000    0.00
  10.600   18.39    0.63   -1.50   0.000   0.200   0.000    0.00
  10.650   17.20    1.16   -0.90   0.000   0.200   0.000    0.00
  10.700   16.97   -2.24   -1.02   0.000   0.200   0.000    0.00
  10.750   17.11   -2.49   -1.11   0.000   0.200   0.000    0.00
  10.800   17.02   -6.94   -1.05   0.000   0.200   0.000    0.00
  10.850   16.78   -3.09   -0.90   0.000   0.200   0.000    0.00
  10.900   16.51   -0.10   -1.03   0.000   0.200   0.000    0.00
  10.950   16.30   -2.85   -1.70   0.000   0.200   0.000    0.00
  11.000   16.65   -8.10   -1.12   0.000   0.200   0.000    0.00
  11.050   16.58   -5.47   -1.32   0.000   0.200   0.000    0.00
  11.100   15.28   -8.33    0.00   0.000   0.200   0.000    0.00
  11.150   15.47  -12.29    0.17   0.000   0.200   0.000    0.00
  11.200   15.34  -10.30   -1.96   0.000   0.200   0.000    0.00
  11.250   15.28   -8.80   -0.75   0.000   0.200   0.000    0.00
  11.300   15.60   -6.44    0.53   0.000   0.200   0.000    0.00
  11.350   16.36   -5.50   -0.28   0.000   0.200   0.000    0.00
  11.400   16.47   -1.72    0.34   0.000   0.200   0.000    0.00
  11.450   14.85   -4.64    0.15   0.000   0.200   0.000    0.00
  11.500   14.30   -4.32    0.57   0.000   0.200   0.000    0.00
  11.550   15.25   -4.88    0.70   0.000   0.200   0.000    0.00
  11.600   15.86   -8.02    0.99   0.000   0.200   0.000    0.00
  11.650   15.56   -6.39    0.82   0.000   0.200   0.000    0.00
  11.700   16.66   -4.18    1.01   0.000   0.200   0.000    0.00
  11.750   16.66   -0.78    0.48   0.000   0.200   0.000    0.00
  11.800   16.07   -2.00   -0.61   0.000   0.200   0.000    0.00
  11.850   15.43   -0.50   -1.16   0.000   0.200   0.000    0.00
  11.900   15.19    0.63    0.13   0.000   0.200   0.000    0.00
  11.950   13.85   -1.34    0.61   0.000   0.200   0.000    0.00
  12.000   14.91    1.15   -0.89   0.000   0.200   0.000    0.00
  12.050   15.38   -0.45   -0.89   0.000   0.200   0.000    0.00
  12.100   15.63   -0.46   -1.03   0.000   0.200   0.000    0.00
  12.150   15.16   -1.55   -1.17   0.000   0.200   0.000    0.00
  12.200   15.63   -4.59   -0.74   0.000   0.200   0.000    0.00
  12.250   15.80   -0.15   -0.77   0.000   0.200   0.000    0.00
  12.300   17.64   -2.49   -1.21   0.000   0.200   0.000    0.00
  12.350   17.74   -3.99   -1.61   0.000   0.200   0.000    0.00
  12.400   17.66   -1.00   -1.58   0.000   0.200   0.000    0.00
  12.450   17.60   -0.87   -1.32   0.000   0.200   0.000    0.00
  12.500   17.74    0.64   -0.40   0.000   0.200   0.000    0.00
  12.550   17.15    1.02    0.43   0.000   0.200   0.000    0.00
  12.600   16.07   -2.49    1.92   0.000   0.200   0.000    0.00
  12.650   16.07   -6.71    1.78   0.000   0.200   0.000    0.00
  12.700   15.54   -7.90    1.57   0.000   0.200   0.000    0.00
  12.750   15.89   -5.94    1.18   0.000   0.200   0.000    0.00
  12.800   15.33   -7.41    2.24   0.000   0.200   0.000    0.00
  12.850   15.33   -6.71    2.60   0.000   0.200   0.000    0.00
  12.900   14.36   -9.83    2.46   0.000   0.200   0.000    0.00
  12.950   14.76  -11.94    1.93   0.000   0.200   0.000    0.00
  13.000   16.05  -10.25    1.16   0.000   0.200   0.000    0.00
  13.050   17.12  -10.48    0.74   0.000   0.200   0.000    0.00
  13.100   17.02   -7.60   -0.85   0.000   0.200   0.000    0.00
  13.150   16.50   -6.07   -0.04   0.000   0.200   0.000    0.00
  13.200   15.27   -4.78    1.15   0.000   0.200   0.000    0.00
  13.250   16.04   -3.96    2.48   0.000   0.200   0.000    0.00
  13.300   17.46   -4.70    1.47   0.000   0.200   0.000    0.00
  13.350   17.24   -2.69    1.20   0.000   0.200   0.000    0.00
  13.400   17.87    1.30    1.86   0.000   0.200   0.000    0.00
  13.450   18.00    0.81    1.81   0.000   0.200   0.000    0.00
  13.500   17.29   -1.58    2.16   0.000   0.200   0.000    0.00
  13.550   15.81   -1.91    0.56   0.000   0.200   0.000    0.00
  13.600   16.55   -5.40   -0.12   0.000   0.200   0.000    0.00
  13.650   16.36   -7.56    0.52   0.000   0.200   0.000    0.00
  13.700   15.76  -11.86    0.56   0.000   0.200   0.000    0.00
  13.750   15.83  -14.75    0.86   0.000   0.200   0.000    0.00
  13.800   15.40   -9.74   -0.61   0.000   0.200   0.000    0.00
  13.850   14.82   -9.82   -0.28   0.000   0.200   0.000    0.00
  13.900   14.47  -11.02   -0.06   0.000   0.200   0.000    0.00
  13.950   14.92  -12.62   -0.55   0.000   0.200   0.000    0.00
  14.000   15.42  -12.50   -0.23   0.000   0.200   0.000    0.00
  14.050   15.42  -12.56   -0.89   0.000   0.200   0.000    0.00
  14.100   14.64   -7.46   -1.07   0.000   0.200   0.000    0.00
  14.150   14.84   -4.36   -1.15   0.000   0.200   0.000    0.00
  14.200   14.85   -3.78    0.35   0.000   0.200   0.000    0.00
  14.250   14.53   -0.40   -0.10   0.000   0.200   0.000    0.00
  14.300   15.38    1.52    0.62   0.000   0.200   0.000    0.00
  14.350   16.17    0.45    0.12   0.000   0.200   0.000    0.00
  14.400   16.35   -1.54   -0.34   0.000   0.200   0.000    0.00
  14.450   16.73    3.27    0.59   0.000   0.200   0.000    0.00
  14.500   16.23    6.93    0.85   0.000   0.200   0.000    0.00
  14.550   16.61    7.28    0.19   0.000   0.200   0.000    0.00
  14.600   16.67    4.97    0.53   0.000   0.200   0.000    0.00
  14.650   16.51    5.91    0.21   0.000   0.200   0.000    0.00
  14.700   16.73    0.88    0.68   0.000   0.200   0.000    0.00
  14.750   16.65    1.45    0.50   0.000   0.200   0.000    0.00
  14.800   16.70   -1.63    0.16   0.000   0.200   0.000    0.00
  14.850   17.41   -2.82    0.15   0.000   0.200   0.000    0.00
  14.900   17.02   -4.79    0.33   0.000   0.200   0.000    0.00
  14.950   17.10   -3.44    0.64   0.000   0.200   0.000    0.00
  15.000   15.84   -5.24    0.79   0.000   0.200   0.000    0.00
  15.050   16.10   -0.52   -0.26   0.000   0.200   0.000    0.00
  15.100   16.38   -3.07   -0.87   0.000   0.200   0.000    0.00
  15.150   16.65   -4.33   -1.86   0.000   0.200   0.000    0.00
  15.200   16.49   -2.54   -1.93   0.000   0.200   0.000    0.00
  15.250   16.12   -3.81   -1.59   0.000   0.200   0.000    0.00
  15.300   15.92   -0.95   -0.89   0.000   0.200   0.000    0.00
  15.350   14.75   -4.66   -1.19   0.000   0.200   0.000    0.00
  15.400   15.63   -6.77   -1.23   0.000   0.200   0.000    0.00
  15.450   16.20   -3.58   -0.71   0.000   0.200   0.000    0.00
  15.500   15.50   -1.97    0.33   0.000   0.200   0.000    0.00
  15.550   15.52   -6.54   -0.15   0.000   0.200   0.000    0.00
  15.600   15.54   -2.86   -0.53   0.000   0.200   0.000    0.00
  15.650   16.40   -4.49   -0.68   0.000   0.200   0.000    0.00
  15.700   16.51    0.04   -0.68   0.000   0.200   0.000    0.00
  15.750   16.77    2.24   -0.95   0.000   0.200   0.000    0.00
  15.800   16.37    2.94   -1.07   0.000   0.200   0.000    0.00
  15.850   15.62    5.86   -1.67   0.000   0.200   0.000    0.00
  15.900   15.77    5.23   -1.54   0.000   0.200   0.000    0.00
  15.950   16.61    8.79   -1.06   0.000   0.200   0.000    0.00
  16.000   16.93    9.37   -1.04   0.000   0.200   0.000    0.00
  16.050   16.59    6.98   -0.94   0.000   0.200   0.000    0.00
  16.100   16.14    8.17   -0.79   0.000   0.200   0.000    0.00
  16.150   16.67    4.92    0.49   0.000   0.200   0.000    0.00
  16.200   17.40    0.33    0.04   0.000   0.200   0.000    0.00
  16.250   18.09    1.61   -1.19   0.000   0.200   0.000    0.00
  16.300   17.74   -0.08   -1.14   0.000   0.200   0.000    0.00
  16.350   18.35   -1.67   -1.69   0.000   0.200   0.000    0.00
  16.400   18.36   -5.44   -2.14   0.000   0.200   0.000    0.00
  16.450   19.00   -6.87   -1.36   0.000   0.200   0.000    0.00
  16.500   19.06   -6.06   -1.12   0.000   0.200   0.000    0.00
  16.550   19.61   -2.93   -1.30   0.000   0.200   0.000    0.00
  16.600   20.22   -4.96   -1.48   0.000   0.200   0.000    0.00
  16.650   19.71   -4.53   -1.76   0.000   0.200   0.000    0.00
  16.700   19.26   -3.43   -2.73   0.000   0.200   0.000    0.00
  16.750   18.78   -3.21   -2.91   0.000   0.200   0.000    0.00
  16.800   17.79   -3.95   -2.02   0.000   0.200   0.000    0.00
  16.850   17.89   -3.18   -3.19   0.000   0.200   0.000    0.00
  16.900   18.27   -5.18   -3.45   0.000   0.200   0.000    0.00
  16.950   18.57   -3.70   -2.50   0.000   0.200   0.000    0.00
  17.000   19.50    0.25   -2.97   0.000   0.200   0.000    0.00
  17.050   18.91    0.16   -3.68   0.000   0.200   0.000    0.00
  17.100   18.61    0.80   -2.99   0.000   0.200   0.000    0.00
  17.150   19.12    3.38   -1.87   0.000   0.200   0.000    0.00
  17.200   19.40    1.43   -1.71   0.000   0.200   0.000    0.00
  17.250   18.96   -2.11   -1.49   0.000   0.200   0.000    0.00
  17.300   17.93   -1.45   -0.61   0.000   0.200   0.000    0.00
  17.350   17.22    0.22    0.15   0.000   0.200   0.000    0.00
  17.400   17.15    2.12    1.08   0.000   0.200   0.000    0.00
  17.450   17.81    1.48    1.42   0.000   0.200   0.000    0.00
  17.500   17.64    3.77    0.55   0.000   0.200   0.000    0.00
  17.550   18.15    3.40    0.15   0.000   0.200   0.000    0.00
  17.600   18.51    7.38    0.22   0.000   0.200   0.000    0.00
  17.650   18.04   12.30   -0.05   0.000   0.200   0.000    0.00
  17.700   18.04   13.50   -0.63   0.000   0.200   0.000    0.00
  17.750   18.06   13.41   -0.75   0.000   0.200   0.000    0.00
  17.800   18.17   10.85   -0.83   0.000   0.200   0.000    0.00
  17.850   17.70    8.63    0.14   0.000   0.200   0.000    0.00
  17.900   17.96    6.49    1.26   0.000   0.200   0.000    0.00
  17.950   16.96    7.12    0.69   0.000   0.200   0.000    0.00
  18.000   17.29   11.97    0.80   0.000   0.200   0.000    0.00
  18.050   17.34   13.18    0.97   0.000   0.200   0.000    0.00
  18.100   16.57   13.42    0.98   0.000   0.200   0.000    0.00
  18.150   17.99   15.09    0.56   0.000   0.200   0.000    0.00
  18.200   17.81   13.20    0.11   0.000   0.200   0.000    0.00
  18.250   18.45   10.50   -0.78   0.000   0.200   0.000    0.00
  18.300   19.55   12.42    0.01   0.000   0.200   0.000    0.00
  18.350   18.48   14.35   -0.47   0.000   0.200   0.000    0.00
  18.400   18.28   10.88   -1.29   0.000   0.200   0.000    0.00
  18.450   17.71    6.70   -1.53   0.000   0.200   0.000    0.00
  18.500   17.60   10.65   -0.61   0.000   0.200   0.000    0.00
  18.550   17.89    8.92   -0.73   0.000   0.200   0.000    0.00
  18.600   18.17    9.77   -1.37   0.000   0.200   0.000    0.00
  18.650   18.30    9.62   -0.41   0.000   0.200   0.000    0.00
  18.700   17.80    6.93    0.75   0.000   0.200   0.000    0.00
  18.750   17.43    5.99    0.30   0.000   0.200   0.000    0.00
  18.800   16.84    8.25    0.20   0.000   0.200   0.000    0.00
  18.850   17.00    4.41    1.65   0.000   0.200   0.000    0.00
  18.900   18.02    6.33    1.55   0.000   0.200   0.000    0.00
  18.950   18.23   10.49    0.97   0.000   0.200   0.000    0.00
  19.000   18.27    8.76    1.06   0.000   0.200   0.000    0.00
  19.050   18.17    9.49    1.12   0.000   0.200   0.000    0.00
  19.100   17.82   10.68    2.29   0.000   0.200   0.000    0.00
  19.150   18.41    6.29    1.48   0.000   0.200   0.000    0.00
  19.200   18.89    7.73    0.88   0.000   0.200   0.000    0.00
  19.250   19.19    5.80    0.49   0.000   0.200   0.000    0.00
  19.300   19.00    6.05    0.42   0.000   0.200   0.000    0.00
  19.350   18.17    4.33    0.05   0.000   0.200   0.000    0.00
  19.400   18.20   -2.05   -0.50   0.000   0.200   0.000    0.00
  19.450   17.49    1.11   -1.04   0.000   0.200   0.000    0.00
  19.500   16.62    1.60   -1.69   0.000   0.200   0.000    0.00
  19.550   17.29   -1.48   -1.84   0.000   0.200   0.000    0.00
  19.600   17.42   -1.31   -1.08   0.000   0.200   0.000    0.00
  19.650   18.37   -2.89   -1.28   0.000   0.200   0.000    0.00
  19.700   17.70   -1.79   -0.96   0.000   0.200   0.000    0.00
  19.750   16.81    1.12    0.59   0.000   0.200   0.000    0.00
  19.800   16.31   -1.19    0.96   0.000   0.200   0.000    0.00
  19.850   16.48   -0.42    0.87   0.000   0.200   0.000    0.00
  19.900   16.18    0.43    0.80   0.000   0.200   0.000    0.00
  19.950   16.57    1.87    1.37   0.000   0.200   0.000    0.00
  20.000   16.27    1.80    0.04   0.000   0.200   0.000    0.00
  20.050   16.99   -1.81    0.69   0.000   0.200   0.000    0.00
  20.100   16.82   -2.73    1.98   0.000   0.200   0.000    0.00
  20.150   16.62   -0.94    2.00   0.000   0.200   0.000    0.00
  20.200   16.22    4.28    3.72   0.000   0.200   0.000    0.00
  20.250   16.36    2.90    4.16   0.000   0.200   0.000    0.00
  20.300   16.43   -0.81    2.79   0.000   0.200   0.000    0.00
  20.350   16.55    3.76    2.15   0.000   0.200   0.000    0.00
  20.400   16.28    3.47    1.75   0.000   0.200   0.000    0.00
  20.450   15.00    5.37    2.61   0.000   0.200   0.000    0.00
  20.500   14.58    5.05    2.49   0.000   0.200   0.000    0.00
  20.550   14.37    0.00    2.66   0.000   0.200   0.000    0.00
  20.600   13.46   -3.55    1.98   0.000   0.200   0.000    0.00
  20.650   13.27   -2.96    2.30   0.000   0.200   0.000    0.00
  20.700   14.09   -3.95    2.31   0.000   0.200   0.000    0.00
  20.750   14.16   -6.18    2.44   0.000   0.200   0.000    0.00
  20.800   14.76   -5.74    2.08   0.000   0.200   0.000    0.00
  20.850   15.23   -6.27    1.14   0.000   0.200   0.000    0.00
  20.900   15.07  -10.75    0.79   0.000   0.200   0.000    0.00
  20.950   15.75   -9.63    0.99   0.000   0.200   0.000    0.00
  21.000   16.37   -5.76    2.05   0.000   0.200   0.000    0.00
  21.050   17.81   -5.27    1.86   0.000   0.200   0.000    0.00
  21.100   16.64   -4.93    0.55   0.000   0.200   0.000    0.00
  21.150   16.07   -1.47    0.44   0.000   0.200   0.000    0.00
  21.200   16.12   -0.42    0.84   0.000   0.200   0.000    0.00
  21.250   16.46   -1.51    0.70   0.000   0.200   0.000    0.00
  21.300   17.25   -3.72    0.47   0.000   0.200   0.000    0.00
  21.350   17.32   -4.28   -0.26   0.000   0.200   0.000    0.00
  21.400   17.12    0.94   -0.74   0.000   0.200   0.000    0.00
  21.450   17.49   -3.42   -2.18   0.000   0.200   0.000    0.00
  21.500   17.36   -4.15   -0.77   0.000   0.200   0.000    0.00
  21.550   17.30   -1.60   -1.31   0.000   0.200   0.000    0.00
  21.600   17.31    0.02   -0.86   0.000   0.200   0.000    0.00
  21.650   16.93   -1.51   -1.26   0.000   0.200   0.000    0.00
  21.700   16.19   -4.34   -0.75   0.000   0.200   0.000    0.00
  21.750   15.77   -7.24    0.10   0.000   0.200   0.000    0.00
  21.800   15.66   -9.25    0.59   0.000   0.200   0.000    0.00
  21.850   15.29   -7.10    0.41   0.000   0.200   0.000    0.00
  21.900   14.72   -5.85    0.42   0.000   0.200   0.000    0.00
  21.950   15.72   -4.17   -0.43   0.000   0.200   0.000    0.00
  22.000   15.67   -1.06    1.13   0.000   0.200   0.000    0.00
  22.050   16.06    1.93    0.53   0.000   0.200   0.000    0.00
  22.100   16.91    1.77    1.06   0.000   0.200   0.000    0.00
  22.150   17.25    1.51    0.33   0.000   0.200   0.000    0.00
  22.200   17.75   -0.76    0.27   0.000   0.200   0.000    0.00
  22.250   17.24    0.34    0.41   0.000   0.200   0.000    0.00
  22.300   16.81    1.26   -0.37   0.000   0.200   0.000    0.00
  22.350   16.66    0.77   -0.32   0.000   0.200   0.000    0.00