! This hub-height wind-speed file was generated by TurbSim (v1.06.00, 21-Sep-2012) on 16-Jun-2018 at 18:33:02.
!
! The requested statistics for this data were:
!    Mean Total Wind Speed =   11.000 m/s
!    Turbulence Intensity  =   27.654%
!
!   Time  HorSpd  WndDir  VerSpd  HorShr  VerShr  LnVShr  GstSpd
!  (sec)   (m/s)   (deg)   (m/s)     (-)     (-)     (-)   (m/s)
   0.000    9.85  -15.03   -0.96   0.000   0.200   0.000    0.00
   0.050   10.32  -12.45   -0.72   0.000   0.200   0.000    0.00
   0.100   10.36   -9.83   -0.36   0.000   0.200   0.000    0.00
   0.150   10.09   -8.53   -0.45   0.000   0.200   0.000    0.00
   0.200    9.43  -10.36   -1.43   0.000   0.200   0.000    0.00
   0.250    9.72  -12.46   -1.07   0.000   0.200   0.000    0.00
   0.300    9.90  -14.47   -1.31   0.000   0.200   0.000    0.00
   0.350    9.24  -11.69   -1.92   0.000   0.200   0.000    0.00
   0.400    9.30   -7.32   -0.91   0.000   0.200   0.000    0.00
   0.450    9.37   -6.34   -1.48   0.000   0.200   0.000    0.00
   0.500    9.28   -5.59   -1.48   0.000   0.200   0.000    0.00
   0.550    9.79    3.05   -0.95   0.000   0.200   0.000    0.00
   0.600    9.74   -0.70   -1.17   0.000   0.200   0.000    0.00
   0.650   10.39   -3.89   -1.27   0.000   0.200   0.000    0.00
   0.700    9.88    1.38   -0.85   0.000   0.200   0.000    0.00
   0.750    9.91    9.44   -0.29   0.000   0.200   0.000    0.00
   0.800    9.89    5.24    0.32   0.000   0.200   0.000    0.00
   0.850   10.07    4.89   -0.34   0.000   0.200   0.000    0.00
   0.900   10.20    2.82   -0.49   0.000   0.200   0.000    0.00
   0.950    9.25   -0.66   -0.25   0.000   0.200   0.000    0.00
   1.000    8.70   -3.86   -0.73   0.000   0.200   0.000    0.00
   1.050    8.13   -4.05   -0.19   0.000   0.200   0.000    0.00
   1.100    8.09   -1.36    0.11   0.000   0.200   0.000    0.00
   1.150    8.47    1.77   -0.52   0.000   0.200   0.000    0.00
   1.200    8.58    1.75   -0.21   0.000   0.200   0.000    0.00
   1.250    9.36    5.73    0.23   0.000   0.200   0.000    0.00
   1.300    9.15    6.09    1.37   0.000   0.200   0.000    0.00
   1.350    9.48    4.30    0.76   0.000   0.200   0.000    0.00
   1.400    9.17    6.99    0.58   0.000   0.200   0.000    0.00
   1.450    9.57    6.02    0.93   0.000   0.200   0.000    0.00
   1.500    9.46    4.59    1.19   0.000   0.200   0.000    0.00
   1.550    9.52    6.44    0.64   0.000   0.200   0.000    0.00
   1.600    9.52    2.13    0.05   0.000   0.200   0.000    0.00
   1.650   10.05    4.26   -0.80   0.000   0.200   0.000    0.00
   1.700   10.49    8.23   -1.44   0.000   0.200   0.000    0.00
   1.750   10.72    5.57   -0.92   0.000   0.200   0.000    0.00
   1.800   10.39    7.84    0.12   0.000   0.200   0.000    0.00
   1.850   10.28    7.13   -0.78   0.000   0.200   0.000    0.00
   1.900   11.37    5.97   -1.37   0.000   0.200   0.000    0.00
   1.950   11.68    5.70   -0.83   0.000   0.200   0.000    0.00
   2.000   11.19    9.41   -0.02   0.000   0.200   0.000    0.00
   2.050   11.36   10.63    0.14   0.000   0.200   0.000    0.00
   2.100   11.37    7.46   -0.36   0.000   0.200   0.000    0.00
   2.150   11.82    8.14   -0.66   0.000   0.200   0.000    0.00
   2.200   11.85    2.57   -1.09   0.000   0.200   0.000    0.00
   2.250   11.93    1.40   -1.08   0.000   0.200   0.000    0.00
   2.300   11.78    4.43   -1.10   0.000   0.200   0.000    0.00
   2.350   11.90    2.26   -0.75   0.000   0.200   0.000    0.00
   2.400   11.67    1.42   -1.39   0.000   0.200   0.000    0.00
   2.450   11.91    2.90   -0.90   0.000   0.200   0.000    0.00
   2.500   11.87    2.00   -0.03   0.000   0.200   0.000    0.00
   2.550   11.58    2.03    0.08   0.000   0.200   0.000    0.00
   2.600   12.15   -0.96    0.12   0.000   0.200   0.000    0.00
   2.650   11.86   -1.76   -0.30   0.000   0.200   0.000    0.00
   2.700   12.24   -2.13    0.10   0.000   0.200   0.000    0.00
   2.750   13.06   -0.62    0.65   0.000   0.200   0.000    0.00
   2.800   13.07    3.34    1.09   0.000   0.200   0.000    0.00
   2.850   12.95    1.72    0.39   0.000   0.200   0.000    0.00
   2.900   12.67    2.05    0.14   0.000   0.200   0.000    0.00
   2.950   12.55    3.40   -0.17   0.000   0.200   0.000    0.00
   3.000   13.39    3.89    0.42   0.000   0.200   0.000    0.00
   3.050   13.81    4.54    0.02   0.000   0.200   0.000    0.00
   3.100   13.90    6.35    0.02   0.000   0.200   0.000    0.00
   3.150   13.47    5.85   -0.14   0.000   0.200   0.000    0.00
   3.200   12.94    3.92    0.71   0.000   0.200   0.000    0.00
   3.250   13.15    4.61    0.45   0.000   0.200   0.000    0.00
   3.300   13.78    8.22    1.03   0.000   0.200   0.000    0.00
   3.350   13.15    7.59    0.86   0.000   0.200   0.000    0.00
   3.400   13.56    5.61    1.67   0.000   0.200   0.000    0.00
   3.450   14.25    4.25    1.44   0.000   0.200   0.000    0.00
   3.500   14.31    3.98    1.46   0.000   0.200   0.000    0.00
   3.550   14.54    3.60    1.32   0.000   0.200   0.000    0.00
   3.600   15.05    9.43    1.65   0.000   0.200   0.000    0.00
   3.650   15.42   13.19    1.46   0.000   0.200   0.000    0.00
   3.700   15.90   12.32    1.06   0.000   0.200   0.000    0.00
   3.750   15.77    9.74   -0.10   0.000   0.200   0.000    0.00
   3.800   15.92    7.39   -0.58   0.000   0.200   0.000    0.00
   3.850   15.96   10.53   -0.64   0.000   0.200   0.000    0.00
   3.900   16.27    9.32   -0.22   0.000   0.200   0.000    0.00
   3.950   16.58    9.84   -0.16   0.000   0.200   0.000    0.00
   4.000   16.42   12.81   -0.25   0.000   0.200   0.000    0.00
   4.050   16.60   11.74    0.34   0.000   0.200   0.000    0.00
   4.100   16.80    9.06    0.29   0.000   0.200   0.000    0.00
   4.150   16.29   10.72   -0.10   0.000   0.200   0.000    0.00
   4.200   17.47    7.51   -0.50   0.000   0.200   0.000    0.00
   4.250   16.98    8.51   -0.89   0.000   0.200   0.000    0.00
   4.300   16.11   11.79   -1.71   0.000   0.200   0.000    0.00
   4.350   15.33   11.76   -1.92   0.000   0.200   0.000    0.00
   4.400   15.60   11.56   -2.15   0.000   0.200   0.000    0.00
   4.450   15.60    8.59   -2.02   0.000   0.200   0.000    0.00
   4.500   15.18    9.06   -1.57   0.000   0.200   0.000    0.00
   4.550   15.39    5.24   -1.72   0.000   0.200   0.000    0.00
   4.600   14.90    7.81   -2.73   0.000   0.200   0.000    0.00
   4.650   15.42   10.80   -2.15   0.000   0.200   0.000    0.00
   4.700   15.11    9.76   -1.45   0.000   0.200   0.000    0.00
   4.750   15.56   11.08   -1.51   0.000   0.200   0.000    0.00
   4.800   14.87    6.47   -1.37   0.000   0.200   0.000    0.00
   4.850   14.76    4.97   -0.98   0.000   0.200   0.000    0.00
   4.900   14.03    5.04   -1.48   0.000   0.200   0.000    0.00
   4.950   13.76    2.50   -1.55   0.000   0.200   0.000    0.00
   5.000   14.39    4.69   -1.10   0.000   0.200   0.000    0.00
   5.050   14.80    7.35   -1.66   0.000   0.200   0.000    0.00
   5.100   14.81    7.03   -1.06   0.000   0.200   0.000    0.00
   5.150   14.55    2.26   -0.66   0.000   0.200   0.000    0.00
   5.200   14.38    3.69   -1.61   0.000   0.200   0.000    0.00
   5.250   14.44    4.48   -1.98   0.000   0.200   0.000    0.00
   5.300   13.94    4.48   -0.30   0.000   0.200   0.000    0.00
   5.350   14.35    9.41    0.29   0.000   0.200   0.000    0.00
   5.400   14.38    7.93    0.38   0.000   0.200   0.000    0.00
   5.450   15.54    8.71   -0.38   0.000   0.200   0.000    0.00
   5.500   14.88    9.50    0.24   0.000   0.200   0.000    0.00
   5.550   14.01    9.60    0.33   0.000   0.200   0.000    0.00
   5.600   14.23   10.40   -0.20   0.000   0.200   0.000    0.00
   5.650   14.66   11.44    0.90   0.000   0.200   0.000    0.00
   5.700   15.31   13.85    0.65   0.000   0.200   0.000    0.00
   5.750   15.83   15.08    0.79   0.000   0.200   0.000    0.00
   5.800   16.82   15.55    0.64   0.000   0.200   0.000    0.00
   5.850   16.31   14.77    0.00   0.000   0.200   0.000    0.00
   5.900   15.95   13.38   -0.19   0.000   0.200   0.000    0.00
   5.950   15.23   10.78   -0.26   0.000   0.200   0.000    0.00
   6.000   14.45   12.89   -0.10   0.000   0.200   0.000    0.00
   6.050   14.49   16.14    0.19   0.000   0.200   0.000    0.00
   6.100   15.04   17.88    0.13   0.000   0.200   0.000    0.00
   6.150   14.85   20.40   -0.27   0.000   0.200   0.000    0.00
   6.200   14.31   19.10   -0.42   0.000   0.200   0.000    0.00
   6.250   13.07   15.71   -0.08   0.000   0.200   0.000    0.00
   6.300   13.27   16.02   -0.85   0.000   0.200   0.000    0.00
   6.350   14.16   17.15   -0.03   0.000   0.200   0.000    0.00
   6.400   14.18   16.18   -0.24   0.000   0.200   0.000    0.00
   6.450   14.54   13.68   -0.87   0.000   0.200   0.000    0.00
   6.500   14.73   14.79   -0.94   0.000   0.200   0.000    0.00
   6.550   14.84   14.29   -1.54   0.000   0.200   0.000    0.00
   6.600   14.34   12.21   -1.26   0.000   0.200   0.000    0.00
   6.650   14.39   14.49   -0.52   0.000   0.200   0.000    0.00
   6.700   15.05   11.97   -0.19   0.000   0.200   0.000    0.00
   6.750   15.09   10.32   -0.85   0.000   0.200   0.000    0.00
   6.800   15.16   10.63   -1.35   0.000   0.200   0.000    0.00
   6.850   14.39    8.32   -1.34   0.000   0.200   0.000    0.00
   6.900   15.22   10.98   -1.11   0.000   0.200   0.000    0.00
   6.950   15.42   10.13   -0.72   0.000   0.200   0.000    0.00
   7.000   15.12    5.97   -1.08   0.000   0.200   0.000    0.00
   7.050   15.50    5.98   -1.06   0.000   0.200   0.000    0.00
   7.100   16.81    9.68   -0.73   0.000   0.200   0.000    0.00
   7.150   16.86   11.01   -0.49   0.000   0.200   0.000    0.00
   7.200   16.21    8.91    0.35   0.000   0.200   0.000    0.00
   7.250   16.10    7.95   -0.26   0.000   0.200   0.000    0.00
   7.300   16.55    7.48   -0.60   0.000   0.200   0.000    0.00
   7.350   17.05    7.75   -0.44   0.000   0.200   0.000    0.00
   7.400   16.54    6.30    0.31   0.000   0.200   0.000    0.00
   7.450   15.90    6.11   -0.12   0.000   0.200   0.000    0.00
   7.500   15.87    9.83   -0.19   0.000   0.200   0.000    0.00
   7.550   15.83    6.68   -0.18   0.000   0.200   0.000    0.00
   7.600   16.33    5.48   -0.40   0.000   0.200   0.000    0.00
   7.650   16.00    5.00   -0.64   0.000   0.200   0.000    0.00
   7.700   15.37    4.81   -0.18   0.000   0.200   0.000    0.00
   7.750   16.16    5.45   -0.78   0.000   0.200   0.000    0.00
   7.800   17.10    4.67    0.02   0.000   0.200   0.000    0.00
   7.850   17.01    3.12    1.01   0.000   0.200   0.000    0.00
   7.900   16.16    2.93    0.08   0.000   0.200   0.000    0.00
   7.950   16.30    3.25    0.48   0.000   0.200   0.000    0.00
   8.000   16.54    4.15    0.57   0.000   0.200   0.000    0.00
   8.050   16.47    4.36    0.12   0.000   0.200   0.000    0.00
   8.100   16.21    2.31   -0.02   0.000   0.200   0.000    0.00
   8.150   16.32   -2.89    0.09   0.000   0.200   0.000    0.00
   8.200   16.37   -1.28   -0.01   0.000   0.200   0.000    0.00
   8.250   17.09    1.07    0.96   0.000   0.200   0.000    0.00
   8.300   16.74    1.79    0.82   0.000   0.200   0.000    0.00
   8.350   16.62    3.48   -0.25   0.000   0.200   0.000    0.00
   8.400   15.68    5.93   -0.45   0.000   0.200   0.000    0.00
   8.450   15.23   10.77   -0.45   0.000   0.200   0.000    0.00
   8.500   14.48   12.08    0.02   0.000   0.200   0.000    0.00
   8.550   14.33   14.53   -0.46   0.000   0.200   0.000    0.00
   8.600   14.40   15.31   -1.16   0.000   0.200   0.000    0.00
   8.650   14.66   13.73   -1.46   0.000   0.200   0.000    0.00
   8.700   14.14   12.54   -0.85   0.000   0.200   0.000    0.00
   8.750   14.25   11.85   -0.34   0.000   0.200   0.000    0.00
   8.800   14.31    8.15    0.42   0.000   0.200   0.000    0.00
   8.850   14.51    7.81   -0.08   0.000   0.200   0.000    0.00
   8.900   14.40    4.99   -0.15   0.000   0.200   0.000    0.00
   8.950   14.33    4.20   -0.20   0.000   0.200   0.000    0.00
   9.000   15.10    2.69    0.55   0.000   0.200   0.000    0.00
   9.050   15.29    2.84    1.23   0.000   0.200   0.000    0.00
   9.100   15.63    0.07    0.02   0.000   0.200   0.000    0.00
   9.150   15.42    0.30   -0.35   0.000   0.200   0.000    0.00
   9.200   15.36    0.34   -1.11   0.000   0.200   0.000    0.00
   9.250   14.98    2.48   -1.40   0.000   0.200   0.000    0.00
   9.300   15.02    4.49   -0.80   0.000   0.200   0.000    0.00
   9.350   15.65    4.20   -0.50   0.000   0.200   0.000    0.00
   9.400   15.72    4.53   -0.78   0.000   0.200   0.000    0.00
   9.450   16.36    4.28   -0.50   0.000   0.200   0.000    0.00
   9.500   15.62    3.52   -0.60   0.000   0.200   0.000    0.00
   9.550   15.29    4.11   -0.10   0.000   0.200   0.000    0.00
   9.600   15.61    3.62   -0.87   0.000   0.200   0.000    0.00
   9.650   16.14    2.78   -1.27   0.000   0.200   0.000    0.00
   9.700   16.14    5.31   -1.58   0.000   0.200   0.000    0.00
   9.750   15.70    3.83   -2.06   0.000   0.200   0.000    0.00
   9.800   15.97    3.81   -1.73   0.000   0.200   0.000    0.00
   9.850   15.98    6.58   -2.36   0.000   0.200   0.000    0.00
   9.900   15.85    6.62   -2.86   0.000   0.200   0.000    0.00
   9.950   16.10    7.76   -2.23   0.000   0.200   0.000    0.00
  10.000   15.79    9.49   -2.13   0.000   0.200   0.000    0.00
  10.050   15.28   12.71   -1.75   0.000   0.200   0.000    0.00
  10.100   15.16    9.75   -1.66   0.000   0.200   0.000    0.00
  10.150   14.95    8.41   -2.19   0.000   0.200   0.000    0.00
  10.200   15.04    7.76   -1.81   0.000   0.200   0.000    0.00
  10.250   15.95    6.59   -1.86   0.000   0.200   0.000    0.00
  10.300   15.42    9.54   -1.34   0.000   0.200   0.000    0.00
  10.350   15.34    7.63   -0.85   0.000   0.200   0.000    0.00
  10.400   15.35    4.21   -1.13   0.000   0.200   0.000    0.00
  10.450   15.39   -0.69   -1.74   0.000   0.200   0.000    0.00
  10.500   15.47   -0.38   -1.13   0.000   0.200   0.000    0.00
  10.550   14.89    1.11   -1.73   0.000   0.200   0.000    0.00
  10.600   15.33    2.73   -1.94   0.000   0.200   0.000    0.00
  10.650   16.09    4.00   -2.33   0.000   0.200   0.000    0.00
  10.700   15.92    1.25   -2.11   0.000   0.200   0.000    0.00
  10.750   16.46    2.67   -1.69   0.000   0.200   0.000    0.00
  10.800   16.67    2.13   -1.24   0.000   0.200   0.000    0.00
  10.850   16.82    1.19   -1.03   0.000   0.200   0.000    0.00
  10.900   16.47    0.76   -0.95   0.000   0.200   0.000    0.00
  10.950   16.19    1.53   -0.77   0.000   0.200   0.000    0.00
  11.000   15.35    0.16   -1.21   0.000   0.200   0.000    0.00
  11.050   15.73    0.58   -1.68   0.000   0.200   0.000    0.00
  11.100   14.50    4.07   -2.15   0.000   0.200   0.000    0.00
  11.150   14.62    5.08   -2.07   0.000   0.200   0.000    0.00
  11.200   15.00    9.46   -1.70   0.000   0.200   0.000    0.00
  11.250   15.93   10.10   -1.50   0.000   0.200   0.000    0.00
  11.300   15.82    8.64   -1.83   0.000   0.200   0.000    0.00
  11.350   15.37    8.79   -1.89   0.000   0.200   0.000    0.00
  11.400   15.24    6.56   -1.76   0.000   0.200   0.000    0.00
  11.450   14.95    4.52   -1.33   0.000   0.200   0.000    0.00
  11.500   15.24    4.67   -1.38   0.000   0.200   0.000    0.00
  11.550   15.14    3.84   -1.26   0.000   0.200   0.000    0.00
  11.600   15.42    7.69   -0.49   0.000   0.200   0.000    0.00
  11.650   15.42    4.43   -0.51   0.000   0.200   0.000    0.00
  11.700   16.07    4.62   -0.81   0.000   0.200   0.000    0.00
  11.750   15.45    3.19   -1.35   0.000   0.200   0.000    0.00
  11.800   15.77    2.86   -0.73   0.000   0.200   0.000    0.00
  11.850   15.00    0.00   -1.37   0.000   0.200   0.000    0.00
  11.900   15.14    1.01   -1.59   0.000   0.200   0.000    0.00
  11.950   16.34    0.76   -1.14   0.000   0.200   0.000    0.00
  12.000   16.89    0.70   -0.28   0.000   0.200   0.000    0.00
  12.050   17.09   -0.52    0.24   0.000   0.200   0.000    0.00
  12.100   16.33    2.52   -0.05   0.000   0.200   0.000    0.00
  12.150   16.56    2.75   -0.09   0.000   0.200   0.000    0.00
  12.200   16.68    1.29    0.54   0.000   0.200   0.000    0.00
  12.250   16.65    1.53   -0.27   0.000   0.200   0.000    0.00
  12.300   16.53    0.13   -0.64   0.000   0.200   0.000    0.00
  12.350   15.71    2.90   -0.15   0.000   0.200   0.000    0.00
  12.400   16.22    3.50   -0.14   0.000   0.200   0.000    0.00
  12.450   15.88    3.71   -0.80   0.000   0.200   0.000    0.00
  12.500   16.06    4.34   -0.44   0.000   0.200   0.000    0.00
  12.550   16.13    6.52   -0.12   0.000   0.200   0.000    0.00
  12.600   15.94    6.27    0.04   0.000   0.200   0.000    0.00
  12.650   15.70    5.49   -0.14   0.000   0.200   0.000    0.00
  12.700   15.50    5.04   -1.26   0.000   0.200   0.000    0.00
  12.750   15.13    4.16   -1.66   0.000   0.200   0.000    0.00
  12.800   15.11    5.83   -0.59   0.000   0.200   0.000    0.00
  12.850   14.55    7.41   -0.62   0.000   0.200   0.000    0.00
  12.900   14.65    3.27   -0.85   0.000   0.200   0.000    0.00
  12.950   15.28    7.13   -0.56   0.000   0.200   0.000    0.00
  13.000   14.82    4.13   -0.25   0.000   0.200   0.000    0.00
  13.050   14.58    0.65   -1.54   0.000   0.200   0.000    0.00
  13.100   14.67   -1.93   -1.00   0.000   0.200   0.000    0.00
  13.150   15.21    2.32   -0.69   0.000   0.200   0.000    0.00
  13.200   15.23    0.35   -0.13   0.000   0.200   0.000    0.00
  13.250   15.00    1.39   -1.08   0.000   0.200   0.000    0.00
  13.300   15.53   -0.08   -1.41   0.000   0.200   0.000    0.00
  13.350   15.93    0.21   -1.32   0.000   0.200   0.000    0.00
  13.400   15.06   -1.03   -1.70   0.000   0.200   0.000    0.00
  13.450   15.33   -2.17   -0.34   0.000   0.200   0.000    0.00
  13.500   14.80    1.12   -0.32   0.000   0.200   0.000    0.00
  13.550   14.67    0.04   -0.11   0.000   0.200   0.000    0.00
  13.600   13.52    2.01   -0.45   0.000   0.200   0.000    0.00
  13.650   13.17    3.23   -0.34   0.000   0.200   0.000    0.00
  13.700   13.45   -2.29    0.36   0.000   0.200   0.000    0.00
  13.750   13.34   -5.06    0.83   0.000   0.200   0.000    0.00
  13.800   13.26   -3.91    0.53   0.000   0.200   0.000    0.00
  13.850   13.43   -3.22    0.03   0.000   0.200   0.000    0.00
  13.900   12.94   -4.68    0.25   0.000   0.200   0.000    0.00
  13.950   13.03   -5.91    0.31   0.000   0.200   0.000    0.00
  14.000   13.18   -3.27    0.34   0.000   0.200   0.000    0.00
  14.050   13.58   -4.54    0.11   0.000   0.200   0.000    0.00
  14.100   13.40   -6.37    0.38   0.000   0.200   0.000    0.00
  14.150   13.22   -2.87    0.52   0.000   0.200   0.000    0.00
  14.200   13.41   -2.25    0.71   0.000   0.200   0.000    0.00
  14.250   13.82   -0.85    0.39   0.000   0.200   0.000    0.00
  14.300   13.74    1.82   -0.16   0.000   0.200   0.000    0.00
  14.350   12.90    0.94   -0.13   0.000   0.200   0.000    0.00
  14.400   12.27   -5.44    0.22   0.000   0.200   0.000    0.00
  14.450   12.29   -2.19    1.09   0.000   0.200   0.000    0.00
  14.500   11.53   -1.17   -0.05   0.000   0.200   0.000    0.00
  14.550   11.46   -0.12    0.03   0.000   0.200   0.000    0.00
  14.600   11.23   -0.96   -0.17   0.000   0.200   0.000    0.00
  14.650   11.41    5.31   -0.72   0.000   0.200   0.000    0.00
  14.700   11.80    7.54   -1.41   0.000   0.200   0.000    0.00
  14.750   11.30    5.37   -1.51   0.000   0.200   0.000    0.00
  14.800   11.92    1.24   -2.29   0.000   0.200   0.000    0.00
  14.850   11.15    2.02   -1.74   0.000   0.200   0.000    0.00
  14.900   11.62    1.72   -1.49   0.000   0.200   0.000    0.00
  14.950   12.14   -1.30   -1.53   0.000   0.200   0.000    0.00
  15.000   11.26   -5.55   -1.04   0.000   0.200   0.000    0.00
  15.050   11.31   -6.56   -1.59   0.000   0.200   0.000    0.00
  15.100   11.47   -7.52   -1.43   0.000   0.200   0.000    0.00
  15.150   11.73   -4.48   -1.18   0.000   0.200   0.000    0.00
  15.200   11.92   -1.47   -0.88   0.000   0.200   0.000    0.00
  15.250   11.67   -4.22   -0.77   0.000   0.200   0.000    0.00
  15.300   11.80   -4.54   -0.80   0.000   0.200   0.000    0.00
  15.350   11.69   -2.26   -0.23   0.000   0.200   0.000    0.00
  15.400   11.62   -1.98   -0.01   0.000   0.200   0.000    0.00
  15.450   10.85   -0.27   -0.43   0.000   0.200   0.000    0.00
  15.500   10.84   -0.29   -0.21   0.000   0.200   0.000    0.00
  15.550   10.94   -5.89   -0.42   0.000   0.200   0.000    0.00
  15.600   11.21   -8.23   -0.85   0.000   0.200   0.000    0.00
  15.650   12.12   -5.13   -0.31   0.000   0.200   0.000    0.00
  15.700   12.72   -7.95    0.60   0.000   0.200   0.000    0.00
  15.750   13.08   -9.62    0.78   0.000   0.200   0.000    0.00
  15.800   12.44   -6.33    0.43   0.000   0.200   0.000    0.00
  15.850   12.39   -2.13    0.30   0.000   0.200   0.000    0.00
  15.900   12.37   -0.88    0.60   0.000   0.200   0.000    0.00
  15.950   12.37   -2.60    0.98   0.000   0.200   0.000    0.00
  16.000   12.28   -4.52    1.25   0.000   0.200   0.000    0.00
  16.050   12.37   -2.70    1.26   0.000   0.200   0.000    0.00
  16.100   12.45   -5.63    0.97   0.000   0.200   0.000    0.00
  16.150   12.41   -6.14    0.41   0.000   0.200   0.000    0.00
  16.200   13.34   -5.89    0.76   0.000   0.200   0.000    0.00
  16.250   12.73   -3.26    0.67   0.000   0.200   0.000    0.00
  16.300   12.22   -0.88    0.43   0.000   0.200   0.000    0.00
  16.350   12.16   -4.34    0.91   0.000   0.200   0.000    0.00
  16.400   12.79   -1.32    1.19   0.000   0.200   0.000    0.00
  16.450   12.84   -1.15    1.27   0.000   0.200   0.000    0.00
  16.500   13.05    1.99    1.21   0.000   0.200   0.000    0.00
  16.550   13.23    5.92    0.64   0.000   0.200   0.000    0.00
  16.600   13.88    7.85    1.27   0.000   0.200   0.000    0.00
  16.650   14.28    4.88    1.01   0.000   0.200   0.000    0.00
  16.700   13.58    7.82    0.96   0.000   0.200   0.000    0.00
  16.750   13.34    5.89   -0.35   0.000   0.200   0.000    0.00
  16.800   13.73    9.29   -0.45   0.000   0.200   0.000    0.00
  16.850   13.58    8.39   -0.71   0.000   0.200   0.000    0.00
  16.900   13.06    8.12   -0.52   0.000   0.200   0.000    0.00
  16.950   12.82    7.83   -0.69   0.000   0.200   0.000    0.00
  17.000   12.75    6.45   -0.72   0.000   0.200   0.000    0.00
  17.050   13.02    7.24   -0.47   0.000   0.200   0.000    0.00
  17.100   13.06    5.78   -1.17   0.000   0.200   0.000    0.00
  17.150   13.24    4.64    0.30   0.000   0.200   0.000    0.00
  17.200   13.14    8.15    0.65   0.000   0.200   0.000    0.00
  17.250   12.58    6.19   -0.89   0.000   0.200   0.000    0.00
  17.300   12.75    1.60   -0.71   0.000   0.200   0.000    0.00
  17.350   13.02    2.76   -0.86   0.000   0.200   0.000    0.00
  17.400   13.35    0.09   -0.76   0.000   0.200   0.000    0.00
  17.450   12.78   -0.07   -0.89   0.000   0.200   0.000    0.00
  17.500   12.40    0.64    0.17   0.000   0.200   0.000    0.00
  17.550   12.53   -1.39    0.70   0.000   0.200   0.000    0.00
  17.600   12.86    0.26    0.47   0.000   0.200   0.000    0.00
  17.650   13.72    1.78    0.34   0.000   0.200   0.000    0.00
  17.700   13.89    3.61    0.24   0.000   0.200   0.000    0.00
  17.750   13.57    3.33    0.14   0.000   0.200   0.000    0.00
  17.800   14.24    5.81    0.26   0.000   0.200   0.000    0.00
  17.850   14.85    3.61    0.51   0.000   0.200   0.000    0.00
  17.900   14.45   -0.08    0.68   0.000   0.200   0.000    0.00
  17.950   14.99   -2.42    0.62   0.000   0.200   0.000    0.00
  18.000   14.98   -1.18    0.25   0.000   0.200   0.000    0.00
  18.050   14.64   -4.80   -0.27   0.000   0.200   0.000    0.00
  18.100   13.63   -6.97   -0.96   0.000   0.200   0.000    0.00
  18.150   13.33   -2.85   -1.56   0.000   0.200   0.000    0.00
  18.200   13.35   -5.73   -1.44   0.000   0.200   0.000    0.00
  18.250   13.54   -5.08   -1.53   0.000   0.200   0.000    0.00
  18.300   13.82   -4.48   -2.17   0.000   0.200   0.000    0.00
  18.350   14.72   -1.97   -2.52   0.000   0.200   0.000    0.00
  18.400   14.42    0.33   -2.44   0.000   0.200   0.000    0.00
  18.450   14.12   -3.33   -2.31   0.000   0.200   0.000    0.00
  18.500   14.02   -2.34   -1.95   0.000   0.200   0.000    0.00
  18.550   14.33   -2.16   -2.44   0.000   0.200   0.000    0.00
  18.600   15.25    0.60   -2.54   0.000   0.200   0.000    0.00
  18.650   15.89    1.22   -1.52   0.000   0.200   0.000    0.00
  18.700   14.99   -0.01   -1.79   0.000   0.200   0.000    0.00
  18.750   14.22    1.16   -1.96   0.000   0.200   0.000    0.00
  18.800   14.10   -2.20   -1.95   0.000   0.200   0.000    0.00
  18.850   13.78   -1.41   -0.74   0.000   0.200   0.000    0.00
  18.900   14.38   -2.49   -0.29   0.000   0.200   0.000    0.00
  18.950   14.39   -2.31   -0.41   0.000   0.200   0.000    0.00
  19.000   13.74   -0.37   -0.24   0.000   0.200   0.000    0.00
  19.050   13.88   -1.92    0.27   0.000   0.200   0.000    0.00
  19.100   13.67   -4.42   -0.01   0.000   0.200   0.000    0.00
  19.150   13.71   -3.67   -0.15   0.000   0.200   0.000    0.00
  19.200   13.33   -4.02   -0.09   0.000   0.200   0.000    0.00
  19.250   12.98   -5.62   -0.20   0.000   0.200   0.000    0.00
  19.300   13.43   -8.86    0.17   0.000   0.200   0.000    0.00
  19.350   12.72   -7.44    0.18   0.000   0.200   0.000    0.00
  19.400   12.83   -2.59   -0.37   0.000   0.200   0.000    0.00
  19.450   13.45   -3.34   -0.56   0.000   0.200   0.000    0.00
  19.500   14.14   -5.41   -0.71   0.000   0.200   0.000    0.00
  19.550   13.42   -3.67   -1.03   0.000   0.200   0.000    0.00
  19.600   12.95   -2.68   -0.68   0.000   0.200   0.000    0.00
  19.650   13.38   -1.28   -0.55   0.000   0.200   0.000    0.00
  19.700   14.06    0.93   -1.68   0.000   0.200   0.000    0.00
  19.750   13.83    0.88   -1.29   0.000   0.200   0.000    0.00
  19.800   14.46   -1.64   -1.32   0.000   0.200   0.000    0.00
  19.850   14.89   -4.67   -1.59   0.000   0.200   0.000    0.00
  19.900   15.44   -4.56   -2.02   0.000   0.200   0.000    0.00
  19.950   14.89    1.52   -1.98   0.000   0.200   0.000    0.00
  20.000   14.56    2.27   -1.80   0.000   0.200   0.000    0.00
  20.050   14.77    0.83   -1.55   0.000   0.200   0.000    0.00
  20.100   14.62   -0.13   -1.29   0.000   0.200   0.000    0.00
  20.150   13.90    0.42   -0.85   0.000   0.200   0.000    0.00
  20.200   13.71    3.84   -1.11   0.000   0.200   0.000    0.00
  20.250   13.99    3.89   -1.49   0.000   0.200   0.000    0.00
  20.300   13.85   -1.77   -0.91   0.000   0.200   0.000    0.00
  20.350   13.61    0.48   -1.36   0.000   0.200   0.000    0.00
  20.400   13.97   -3.30   -0.54   0.000   0.200   0.000    0.00
  20.450   13.69   -7.13   -0.95   0.000   0.200   0.000    0.00
  20.500   13.89   -9.21   -0.25   0.000   0.200   0.000    0.00
  20.550   13.56  -10.19   -0.66   0.000   0.200   0.000    0.00
  20.600   14.04   -7.41   -0.73   0.000   0.200   0.000    0.00
  20.650   13.33   -8.92   -0.50   0.000   0.200   0.000    0.00
  20.700   14.13   -3.35   -0.97   0.000   0.200   0.000    0.00
  20.750   13.90    0.97   -0.19   0.000   0.200   0.000    0.00
  20.800   13.99    0.64   -0.05   0.000   0.200   0.000    0.00
  20.850   14.59   -0.34   -0.36   0.000   0.200   0.000    0.00
  20.900   15.13   -0.18    0.18   0.000   0.200   0.000    0.00
  20.950   14.31    0.39    0.00   0.000   0.200   0.000    0.00
  21.000   16.05   -1.13    0.28   0.000   0.200   0.000    0.00
  21.050   15.99    0.13    0.30   0.000   0.200   0.000    0.00
  21.100   15.89   -0.13    0.64   0.000   0.200   0.000    0.00
  21.150   16.32   -1.30    0.94   0.000   0.200   0.000    0.00
  21.200   16.22   -4.17    0.66   0.000   0.200   0.000    0.00
  21.250   16.65   -4.19    1.01   0.000   0.200   0.000    0.00
  21.300   16.18   -6.19   -0.31   0.000   0.200   0.000    0.00
  21.350   16.22   -6.11    0.29   0.000   0.200   0.000    0.00
  21.400   15.55   -1.99    0.05   0.000   0.200   0.000    0.00
  21.450   15.56   -4.47   -0.22   0.000   0.200   0.000    0.00
  21.500   15.53   -4.09   -0.38   0.000   0.200   0.000    0.00
  21.550   15.00   -4.62   -0.13   0.000   0.200   0.000    0.00
  21.600   15.44   -3.88    0.30   0.000   0.200   0.000    0.00
  21.650   15.24   -6.08    0.79   0.000   0.200   0.000    0.00
  21.700   15.64   -4.37    0.45   0.000   0.200   0.000    0.00
  21.750   15.26   -6.56    0.06   0.000   0.200   0.000    0.00
  21.800   15.11   -2.88   -0.06   0.000   0.200   0.000    0.00
  21.850   15.48   -4.36    0.34   0.000   0.200   0.000    0.00
  21.900   15.82   -3.91    0.31   0.000   0.200   0.000    0.00
  21.950   14.89   -0.37    0.02   0.000   0.200   0.000    0.00
  22.000   15.39   -1.79   -0.59   0.000   0.200   0.000    0.00
  22.050   16.61    1.39   -0.54   0.000   0.200   0.000    0.00
  22.100   16.24   -0.34   -0.50   0.000   0.200   0.000    0.00
  22.150   16.09    1.96   -0.58   0.000   0.200   0.000    0.00
  22.200   17.15    1.69   -0.54   0.000   0.200   0.000    0.00
  22.250   16.84    2.41   -0.08   0.000   0.200   0.000    0.00
  22.300   16.51    2.62   -0.45   0.000   0.200   0.000    0.00
  22.350   15.87   -1.68   -0.61   0.000   0.200   0.000    0.00