! This hub-height wind-speed file was generated by TurbSim (v1.06.00, 21-Sep-2012) on 16-Jun-2018 at 18:33:57.
!
! The requested statistics for this data were:
!    Mean Total Wind Speed =    5.000 m/s
!    Turbulence Intensity  =   26.180%
!
!   Time  HorSpd  WndDir  VerSpd  HorShr  VerShr  LnVShr  GstSpd
!  (sec)   (m/s)   (deg)   (m/s)     (-)     (-)     (-)   (m/s)
   0.000    3.71   20.12   -0.79   0.000   0.200   0.000    0.00
   0.050    3.42   18.73   -0.64   0.000   0.200   0.000    0.00
   0.100    3.38   15.43   -0.92   0.000   0.200   0.000    0.00
   0.150    3.49   16.61   -0.88   0.000   0.200   0.000    0.00
   0.200    3.45   13.05   -0.79   0.000   0.200   0.000    0.00
   0.250    3.46   12.23   -0.63   0.000   0.200   0.000    0.00
   0.300    3.65   11.20   -0.68   0.000   0.200   0.000    0.00
   0.350    3.79    9.39   -0.42   0.000   0.200   0.000    0.00
   0.400    3.85    5.87   -0.72   0.000   0.200   0.000    0.00
   0.450    3.77    2.63   -0.46   0.000   0.200   0.000    0.00
   0.500    3.80    7.77   -0.26   0.000   0.200   0.000    0.00
   0.550    3.71    4.10   -0.04   0.000   0.200   0.000    0.00
   0.600    3.91    4.86   -0.20   0.000   0.200   0.000    0.00
   0.650    3.88    1.24   -0.25   0.000   0.200   0.000    0.00
   0.700    3.97    3.69   -0.50   0.000   0.200   0.000    0.00
   0.750    3.90    5.71   -0.38   0.000   0.200   0.000    0.00
   0.800    3.73    6.90   -0.50   0.000   0.200   0.000    0.00
   0.850    3.90    4.94   -0.36   0.000   0.200   0.000    0.00
   0.900    4.04    4.37   -0.32   0.000   0.200   0.000    0.00
   0.950    4.02    7.61   -0.62   0.000   0.200   0.000    0.00
   1.000    4.07    6.54   -0.51   0.000   0.200   0.000    0.00
   1.050    3.96    8.63   -0.44   0.000   0.200   0.000    0.00
   1.100    3.98    8.31   -0.41   0.000   0.200   0.000    0.00
   1.150    4.27    8.41   -0.40   0.000   0.200   0.000    0.00
   1.200    4.51    5.18   -0.18   0.000   0.200   0.000    0.00
   1.250    4.46    3.87   -0.43   0.000   0.200   0.000    0.00
   1.300    4.57    1.44   -0.37   0.000   0.200   0.000    0.00
   1.350    4.70   -0.04   -0.74   0.000   0.200   0.000    0.00
   1.400    4.69    1.06   -0.58   0.000   0.200   0.000    0.00
   1.450    4.87   -4.42   -0.40   0.000   0.200   0.000    0.00
   1.500    4.43   -6.69   -0.56   0.000   0.200   0.000    0.00
   1.550    4.37   -5.46   -0.67   0.000   0.200   0.000    0.00
   1.600    4.27   -2.17   -0.73   0.000   0.200   0.000    0.00
   1.650    4.36    2.20   -0.52   0.000   0.200   0.000    0.00
   1.700    4.50    4.31   -0.85   0.000   0.200   0.000    0.00
   1.750    4.66    4.77   -0.78   0.000   0.200   0.000    0.00
   1.800    4.61    2.46   -0.66   0.000   0.200   0.000    0.00
   1.850    4.45    0.23   -0.55   0.000   0.200   0.000    0.00
   1.900    4.41   -0.50   -0.74   0.000   0.200   0.000    0.00
   1.950    4.64    1.93   -0.45   0.000   0.200   0.000    0.00
   2.000    4.89    2.10   -0.19   0.000   0.200   0.000    0.00
   2.050    4.79    4.73   -0.06   0.000   0.200   0.000    0.00
   2.100    4.92    2.99    0.02   0.000   0.200   0.000    0.00
   2.150    5.29    0.73   -0.41   0.000   0.200   0.000    0.00
   2.200    5.17   -0.92   -0.48   0.000   0.200   0.000    0.00
   2.250    5.03   -0.97   -0.27   0.000   0.200   0.000    0.00
   2.300    4.79    1.48    0.04   0.000   0.200   0.000    0.00
   2.350    4.60    0.09   -0.31   0.000   0.200   0.000    0.00
   2.400    4.70   -0.47   -0.39   0.000   0.200   0.000    0.00
   2.450    4.63   -1.26   -0.42   0.000   0.200   0.000    0.00
   2.500    4.36   -0.87   -0.39   0.000   0.200   0.000    0.00
   2.550    4.56    1.97   -0.62   0.000   0.200   0.000    0.00
   2.600    4.60   -0.21   -0.80   0.000   0.200   0.000    0.00
   2.650    4.71    1.70   -0.57   0.000   0.200   0.000    0.00
   2.700    4.84   -1.58   -0.44   0.000   0.200   0.000    0.00
   2.750    5.08   -3.67   -0.51   0.000   0.200   0.000    0.00
   2.800    5.37   -1.66   -0.69   0.000   0.200   0.000    0.00
   2.850    5.40   -1.90   -0.56   0.000   0.200   0.000    0.00
   2.900    5.33   -1.77   -0.56   0.000   0.200   0.000    0.00
   2.950    5.06   -1.14   -0.68   0.000   0.200   0.000    0.00
   3.000    4.91   -1.29   -0.71   0.000   0.200   0.000    0.00
   3.050    5.08    1.87   -0.80   0.000   0.200   0.000    0.00
   3.100    5.24    2.08   -0.67   0.000   0.200   0.000    0.00
   3.150    5.16    5.14   -0.96   0.000   0.200   0.000    0.00
   3.200    5.15   -0.25   -1.09   0.000   0.200   0.000    0.00
   3.250    5.45   -1.59   -0.95   0.000   0.200   0.000    0.00
   3.300    5.65   -3.61   -1.14   0.000   0.200   0.000    0.00
   3.350    5.42   -2.48   -0.90   0.000   0.200   0.000    0.00
   3.400    5.59   -3.03   -1.07   0.000   0.200   0.000    0.00
   3.450    5.58   -2.69   -1.17   0.000   0.200   0.000    0.00
   3.500    5.62   -0.35   -1.36   0.000   0.200   0.000    0.00
   3.550    5.27   -2.25   -1.48   0.000   0.200   0.000    0.00
   3.600    5.36   -2.12   -1.33   0.000   0.200   0.000    0.00
   3.650    5.42   -1.66   -0.92   0.000   0.200   0.000    0.00
   3.700    5.39   -9.17   -0.75   0.000   0.200   0.000    0.00
   3.750    5.01   -6.94   -1.03   0.000   0.200   0.000    0.00
   3.800    4.82   -1.95   -1.08   0.000   0.200   0.000    0.00
   3.850    4.87   -6.01   -0.87   0.000   0.200   0.000    0.00
   3.900    5.29   -7.15   -0.95   0.000   0.200   0.000    0.00
   3.950    5.55   -5.76   -0.62   0.000   0.200   0.000    0.00
   4.000    5.35   -3.08   -0.80   0.000   0.200   0.000    0.00
   4.050    5.14   -6.21   -0.60   0.000   0.200   0.000    0.00
   4.100    5.17   -6.59   -0.58   0.000   0.200   0.000    0.00
   4.150    5.21   -7.17   -0.55   0.000   0.200   0.000    0.00
   4.200    5.05   -3.75   -0.27   0.000   0.200   0.000    0.00
   4.250    4.96   -5.43   -0.37   0.000   0.200   0.000    0.00
   4.300    4.74   -5.85   -0.34   0.000   0.200   0.000    0.00
   4.350    4.95   -5.38   -0.39   0.000   0.200   0.000    0.00
   4.400    5.01   -4.36   -0.35   0.000   0.200   0.000    0.00
   4.450    4.99   -1.51   -0.38   0.000   0.200   0.000    0.00
   4.500    4.69   -2.58   -0.44   0.000   0.200   0.000    0.00
   4.550    4.84   -3.85   -0.47   0.000   0.200   0.000    0.00
   4.600    5.29   -5.55   -0.31   0.000   0.200   0.000    0.00
   4.650    5.11   -5.11   -0.31   0.000   0.200   0.000    0.00
   4.700    5.10   -2.73   -0.50   0.000   0.200   0.000    0.00
   4.750    5.23   -2.64   -0.33   0.000   0.200   0.000    0.00
   4.800    5.49   -5.71   -0.23   0.000   0.200   0.000    0.00
   4.850    5.05   -5.77   -0.38   0.000   0.200   0.000    0.00
   4.900    5.18   -8.75   -0.26   0.000   0.200   0.000    0.00
   4.950    4.91   -8.91   -0.11   0.000   0.200   0.000    0.00
   5.000    5.01  -10.33    0.20   0.000   0.200   0.000    0.00
   5.050    4.97  -10.93   -0.15   0.000   0.200   0.000    0.00
   5.100    4.87  -10.72   -0.22   0.000   0.200   0.000    0.00
   5.150    4.97   -9.16   -0.23   0.000   0.200   0.000    0.00
   5.200    5.02   -7.75   -0.04   0.000   0.200   0.000    0.00
   5.250    4.88   -8.82   -0.45   0.000   0.200   0.000    0.00
   5.300    4.84   -8.87   -0.42   0.000   0.200   0.000    0.00
   5.350    4.66   -9.29   -0.29   0.000   0.200   0.000    0.00
   5.400    4.92  -11.07   -0.23   0.000   0.200   0.000    0.00
   5.450    4.84  -10.69   -0.54   0.000   0.200   0.000    0.00
   5.500    4.74  -10.48   -0.54   0.000   0.200   0.000    0.00
   5.550    4.76   -7.76   -0.66   0.000   0.200   0.000    0.00
   5.600    4.77   -6.88   -0.65   0.000   0.200   0.000    0.00
   5.650    4.77   -7.64   -0.40   0.000   0.200   0.000    0.00
   5.700    5.00   -6.35   -0.26   0.000   0.200   0.000    0.00
   5.750    5.18   -6.83   -0.42   0.000   0.200   0.000    0.00
   5.800    5.00   -4.87   -0.33   0.000   0.200   0.000    0.00
   5.850    4.97   -3.03   -0.24   0.000   0.200   0.000    0.00
   5.900    4.79   -9.50   -0.61   0.000   0.200   0.000    0.00
   5.950    4.86  -11.93   -0.41   0.000   0.200   0.000    0.00
   6.000    4.76  -11.61   -0.08   0.000   0.200   0.000    0.00
   6.050    4.51  -12.06   -0.33   0.000   0.200   0.000    0.00
   6.100    4.58   -9.36   -0.37   0.000   0.200   0.000    0.00
   6.150    5.06  -14.51   -0.53   0.000   0.200   0.000    0.00
   6.200    5.24  -14.44   -0.83   0.000   0.200   0.000    0.00
   6.250    5.45  -14.77   -0.74   0.000   0.200   0.000    0.00
   6.300    5.33  -15.29   -0.50   0.000   0.200   0.000    0.00
   6.350    5.42  -12.04   -0.53   0.000   0.200   0.000    0.00
   6.400    5.42  -17.82   -0.82   0.000   0.200   0.000    0.00
   6.450    5.22  -17.70   -0.83   0.000   0.200   0.000    0.00
   6.500    5.33  -14.05   -0.59   0.000   0.200   0.000    0.00
   6.550    5.25  -11.18   -0.10   0.000   0.200   0.000    0.00
   6.600    5.26  -11.97   -0.16   0.000   0.200   0.000    0.00
   6.650    5.33  -15.67   -0.20   0.000   0.200   0.000    0.00
   6.700    5.17  -13.94   -0.33   0.000   0.200   0.000    0.00
   6.750    5.17  -13.16   -0.42   0.000   0.200   0.000    0.00
   6.800    5.11  -14.21   -0.29   0.000   0.200   0.000    0.00
   6.850    5.05  -12.91   -0.05   0.000   0.200   0.000    0.00
   6.900    4.99  -12.83   -0.29   0.000   0.200   0.000    0.00
   6.950    4.77  -11.91   -0.40   0.000   0.200   0.000    0.00
   7.000    4.88  -13.91   -0.54   0.000   0.200   0.000    0.00
   7.050    4.91  -13.74   -0.83   0.000   0.200   0.000    0.00
   7.100    4.70  -13.93   -0.96   0.000   0.200   0.000    0.00
   7.150    4.88  -12.36   -1.20   0.000   0.200   0.000    0.00
   7.200    4.60  -12.78   -1.12   0.000   0.200   0.000    0.00
   7.250    4.69  -16.45   -1.29   0.000   0.200   0.000    0.00
   7.300    4.81  -13.26   -1.61   0.000   0.200   0.000    0.00
   7.350    4.67  -12.31   -1.12   0.000   0.200   0.000    0.00
   7.400    5.12  -13.22   -0.90   0.000   0.200   0.000    0.00
   7.450    5.13  -14.96   -0.75   0.000   0.200   0.000    0.00
   7.500    4.90  -15.43   -0.69   0.000   0.200   0.000    0.00
   7.550    4.70  -14.72   -0.78   0.000   0.200   0.000    0.00
   7.600    4.88  -15.41   -0.77   0.000   0.200   0.000    0.00
   7.650    5.03  -20.55   -0.41   0.000   0.200   0.000    0.00
   7.700    5.31  -20.32   -0.50   0.000   0.200   0.000    0.00
   7.750    5.45  -17.66   -0.47   0.000   0.200   0.000    0.00
   7.800    5.27  -18.40   -0.59   0.000   0.200   0.000    0.00
   7.850    5.10  -19.22   -0.72   0.000   0.200   0.000    0.00
   7.900    5.07  -20.44   -0.75   0.000   0.200   0.000    0.00
   7.950    5.30  -20.88   -0.45   0.000   0.200   0.000    0.00
   8.000    5.23  -21.85   -0.18   0.000   0.200   0.000    0.00
   8.050    5.18  -21.97    0.06   0.000   0.200   0.000    0.00
   8.100    5.24  -21.54    0.11   0.000   0.200   0.000    0.00
   8.150    5.29  -22.55   -0.14   0.000   0.200   0.000    0.00
   8.200    5.41  -22.36   -0.27   0.000   0.200   0.000    0.00
   8.250    5.19  -20.37   -0.14   0.000   0.200   0.000    0.00
   8.300    5.05  -16.64    0.13   0.000   0.200   0.000    0.00
   8.350    5.16  -16.49    0.04   0.000   0.200   0.000    0.00
   8.400    5.10  -19.06   -0.01   0.000   0.200   0.000    0.00
   8.450    4.98  -16.95   -0.11   0.000   0.200   0.000    0.00
   8.500    4.82  -18.89    0.11   0.000   0.200   0.000    0.00
   8.550    4.88  -19.05    0.14   0.000   0.200   0.000    0.00
   8.600    4.94  -20.93    0.11   0.000   0.200   0.000    0.00
   8.650    4.84  -19.43    0.22   0.000   0.200   0.000    0.00
   8.700    4.82  -18.38    0.16   0.000   0.200   0.000    0.00
   8.750    4.60  -18.12    0.17   0.000   0.200   0.000    0.00
   8.800    4.61  -17.89    0.37   0.000   0.200   0.000    0.00
   8.850    4.57  -20.27    0.56   0.000   0.200   0.000    0.00
   8.900    4.63  -17.84    0.43   0.000   0.200   0.000    0.00
   8.950    4.63  -15.27    0.42   0.000   0.200   0.000    0.00
   9.000    4.69  -12.92    0.46   0.000   0.200   0.000    0.00
   9.050    4.87  -13.44    0.38   0.000   0.200   0.000    0.00
   9.100    4.64  -11.84    0.38   0.000   0.200   0.000    0.00
   9.150    4.62  -11.19    0.17   0.000   0.200   0.000    0.00
   9.200    4.65   -9.56    0.24   0.000   0.200   0.000    0.00
   9.250    4.66  -12.85    0.53   0.000   0.200   0.000    0.00
   9.300    4.74  -16.90    0.27   0.000   0.200   0.000    0.00
   9.350    4.51  -17.28   -0.14   0.000   0.200   0.000    0.00
   9.400    4.10  -14.94    0.01   0.000   0.200   0.000    0.00
   9.450    4.07  -14.29    0.02   0.000   0.200   0.000    0.00
   9.500    4.20  -11.76    0.09   0.000   0.200   0.000    0.00
   9.550    3.97  -15.82    0.41   0.000   0.200   0.000    0.00
   9.600    4.29  -10.92    0.06   0.000   0.200   0.000    0.00
   9.650    4.57  -14.57    0.15   0.000   0.200   0.000    0.00
   9.700    4.58  -17.15    0.14   0.000   0.200   0.000    0.00
   9.750    5.01  -17.81   -0.07   0.000   0.200   0.000    0.00
   9.800    5.12  -18.99    0.10   0.000   0.200   0.000    0.00
   9.850    5.02  -18.39    0.13   0.000   0.200   0.000    0.00
   9.900    5.18  -18.34    0.12   0.000   0.200   0.000    0.00
   9.950    5.36  -18.70    0.36   0.000   0.200   0.000    0.00
  10.000    5.46  -16.74    0.21   0.000   0.200   0.000    0.00
  10.050    5.42  -17.36    0.02   0.000   0.200   0.000    0.00
  10.100    5.47  -16.84    0.06   0.000   0.200   0.000    0.00
  10.150    5.60  -15.98    0.03   0.000   0.200   0.000    0.00
  10.200    5.55  -16.11    0.02   0.000   0.200   0.000    0.00
  10.250    5.53  -15.49   -0.23   0.000   0.200   0.000    0.00
  10.300    5.60  -13.38   -0.43   0.000   0.200   0.000    0.00
  10.350    5.56  -11.76   -0.42   0.000   0.200   0.000    0.00
  10.400    5.44  -10.98   -0.60   0.000   0.200   0.000    0.00
  10.450    5.37  -12.58   -0.66   0.000   0.200   0.000    0.00
  10.500    5.28  -12.63   -0.41   0.000   0.200   0.000    0.00
  10.550    5.39  -13.22   -0.41   0.000   0.200   0.000    0.00
  10.600    5.37  -13.90   -0.35   0.000   0.200   0.000    0.00
  10.650    5.25  -14.89   -0.28   0.000   0.200   0.000    0.00
  10.700    4.77   -9.50   -0.18   0.000   0.200   0.000    0.00
  10.750    4.62  -12.43   -0.02   0.000   0.200   0.000    0.00
  10.800    4.74  -13.39    0.01   0.000   0.200   0.000    0.00
  10.850    4.66  -10.60   -0.28   0.000   0.200   0.000    0.00
  10.900    4.74  -10.51   -0.27   0.000   0.200   0.000    0.00
  10.950    4.54  -14.91   -0.11   0.000   0.200   0.000    0.00
  11.000    4.52  -15.13    0.01   0.000   0.200   0.000    0.00
  11.050    4.24   -8.56    0.22   0.000   0.200   0.000    0.00
  11.100    3.93   -6.93    0.24   0.000   0.200   0.000    0.00
  11.150    3.71   -6.36    0.14   0.000   0.200   0.000    0.00
  11.200    3.68   -6.71    0.08   0.000   0.200   0.000    0.00
  11.250    4.03   -8.29    0.23   0.000   0.200   0.000    0.00
  11.300    4.16  -11.26    0.36   0.000   0.200   0.000    0.00
  11.350    4.03  -12.82    0.14   0.000   0.200   0.000    0.00
  11.400    3.86  -14.24    0.70   0.000   0.200   0.000    0.00
  11.450    3.89  -13.33    0.60   0.000   0.200   0.000    0.00
  11.500    3.90  -16.20    0.35   0.000   0.200   0.000    0.00
  11.550    4.07  -18.10    0.34   0.000   0.200   0.000    0.00
  11.600    4.29  -19.35    0.17   0.000   0.200   0.000    0.00
  11.650    4.26  -16.07    0.56   0.000   0.200   0.000    0.00
  11.700    3.97  -17.26    0.47   0.000   0.200   0.000    0.00
  11.750    4.01  -18.86    0.30   0.000   0.200   0.000    0.00
  11.800    3.70  -16.13    0.24   0.000   0.200   0.000    0.00
  11.850    3.62  -12.44    0.07   0.000   0.200   0.000    0.00
  11.900    3.73  -12.89    0.22   0.000   0.200   0.000    0.00
  11.950    3.66   -9.18    0.25   0.000   0.200   0.000    0.00
  12.000    3.96  -11.26    0.19   0.000   0.200   0.000    0.00
  12.050    3.99  -13.06   -0.19   0.000   0.200   0.000    0.00
  12.100    3.93  -12.06    0.25   0.000   0.200   0.000    0.00
  12.150    3.93   -8.94    0.53   0.000   0.200   0.000    0.00
  12.200    3.86   -9.11    0.47   0.000   0.200   0.000    0.00
  12.250    4.14  -10.95    0.72   0.000   0.200   0.000    0.00
  12.300    3.94   -7.50    0.48   0.000   0.200   0.000    0.00
  12.350    3.89   -2.62    0.65   0.000   0.200   0.000    0.00
  12.400    3.67   -4.75    0.99   0.000   0.200   0.000    0.00
  12.450    3.82   -6.10    0.93   0.000   0.200   0.000    0.00
  12.500    3.77   -4.32    0.97   0.000   0.200   0.000    0.00
  12.550    3.68    0.55    1.06   0.000   0.200   0.000    0.00
  12.600    3.74    6.14    0.89   0.000   0.200   0.000    0.00
  12.650    3.94    1.34    1.30   0.000   0.200   0.000    0.00
  12.700    3.72    1.30    1.09   0.000   0.200   0.000    0.00
  12.750    3.64    1.52    0.90   0.000   0.200   0.000    0.00
  12.800    3.64    0.92    1.26   0.000   0.200   0.000    0.00
  12.850    3.82    0.81    1.03   0.000   0.200   0.000    0.00
  12.900    3.84   -1.25    0.97   0.000   0.200   0.000    0.00
  12.950    3.78   -1.23    0.85   0.000   0.200   0.000    0.00
  13.000    3.81   -0.59    0.68   0.000   0.200   0.000    0.00
  13.050    3.87   -1.47    0.65   0.000   0.200   0.000    0.00
  13.100    3.71   -5.53    0.40   0.000   0.200   0.000    0.00
  13.150    3.56   -3.32   -0.08   0.000   0.200   0.000    0.00
  13.200    3.87   -2.72    0.17   0.000   0.200   0.000    0.00
  13.250    3.96   -4.80   -0.06   0.000   0.200   0.000    0.00
  13.300    3.86    0.38    0.11   0.000   0.200   0.000    0.00
  13.350    4.04    3.61    0.19   0.000   0.200   0.000    0.00
  13.400    4.30    2.86   -0.06   0.000   0.200   0.000    0.00
  13.450    4.27    1.68   -0.08   0.000   0.200   0.000    0.00
  13.500    4.21    0.42   -0.29   0.000   0.200   0.000    0.00
  13.550    4.10    5.60    0.31   0.000   0.200   0.000    0.00
  13.600    4.23    8.28    0.39   0.000   0.200   0.000    0.00
  13.650    4.21   10.87    0.60   0.000   0.200   0.000    0.00
  13.700    4.37    9.89    0.48   0.000   0.200   0.000    0.00
  13.750    4.40    8.21    0.51   0.000   0.200   0.000    0.00
  13.800    4.41    6.20    0.56   0.000   0.200   0.000    0.00
  13.850    4.31    6.75    0.56   0.000   0.200   0.000    0.00
  13.900    4.43    7.35    0.65   0.000   0.200   0.000    0.00
  13.950    4.27    6.83    0.57   0.000   0.200   0.000    0.00
  14.000    4.19    4.03    0.50   0.000   0.200   0.000    0.00
  14.050    4.15    5.18    0.27   0.000   0.200   0.000    0.00
  14.100    3.94    6.80    0.12   0.000   0.200   0.000    0.00
  14.150    3.98    8.11   -0.23   0.000   0.200   0.000    0.00
  14.200    3.99   10.05   -0.12   0.000   0.200   0.000    0.00
  14.250    4.35    9.58   -0.28   0.000   0.200   0.000    0.00
  14.300    3.95    7.16   -0.12   0.000   0.200   0.000    0.00
  14.350    3.90    6.49   -0.19   0.000   0.200   0.000    0.00
  14.400    3.92    4.25   -0.25   0.000   0.200   0.000    0.00
  14.450    3.98    6.06   -0.14   0.000   0.200   0.000    0.00
  14.500    3.96    2.36   -0.33   0.000   0.200   0.000    0.00
  14.550    3.85    2.34   -0.39   0.000   0.200   0.000    0.00
  14.600    4.04    6.44   -0.53   0.000   0.200   0.000    0.00
  14.650    4.30    4.28   -0.31   0.000   0.200   0.000    0.00
  14.700    4.11    2.71   -0.08   0.000   0.200   0.000    0.00
  14.750    4.08    2.72   -0.01   0.000   0.200   0.000    0.00
  14.800    3.98    3.57   -0.15   0.000   0.200   0.000    0.00
  14.850    3.75    8.62    0.02   0.000   0.200   0.000    0.00
  14.900    3.92    9.44   -0.12   0.000   0.200   0.000    0.00
  14.950    3.73   13.23   -0.40   0.000   0.200   0.000    0.00
  15.000    3.65   13.62   -0.28   0.000   0.200   0.000    0.00
  15.050    3.75   13.62   -0.15   0.000   0.200   0.000    0.00
  15.100    3.79   11.50    0.13   0.000   0.200   0.000    0.00
  15.150    3.79   11.36    0.12   0.000   0.200   0.000    0.00
  15.200    3.83   11.76    0.20   0.000   0.200   0.000    0.00
  15.250    3.90   13.33    0.04   0.000   0.200   0.000    0.00
  15.300    3.78   12.97    0.15   0.000   0.200   0.000    0.00
  15.350    3.66   11.95    0.42   0.000   0.200   0.000    0.00
  15.400    3.90   16.76    0.39   0.000   0.200   0.000    0.00
  15.450    4.30   19.36    0.22   0.000   0.200   0.000    0.00
  15.500    4.33   15.92    0.27   0.000   0.200   0.000    0.00
  15.550    4.42   18.01    0.28   0.000   0.200   0.000    0.00
  15.600    4.19   16.63    0.03   0.000   0.200   0.000    0.00
  15.650    3.99   18.95    0.08   0.000   0.200   0.000    0.00
  15.700    3.90   20.14   -0.01   0.000   0.200   0.000    0.00
  15.750    3.80   16.98   -0.05   0.000   0.200   0.000    0.00
  15.800    3.62   17.06   -0.20   0.000   0.200   0.000    0.00
  15.850    3.83   20.22    0.15   0.000   0.200   0.000    0.00
  15.900    3.73   20.50    0.38   0.000   0.200   0.000    0.00
  15.950    3.81   17.39    0.03   0.000   0.200   0.000    0.00
  16.000    3.65   12.77    0.36   0.000   0.200   0.000    0.00
  16.050    3.88   15.07    0.52   0.000   0.200   0.000    0.00
  16.100    4.10   18.41    0.46   0.000   0.200   0.000    0.00
  16.150    4.13   15.92    0.36   0.000   0.200   0.000    0.00
  16.200    4.17   12.83    0.48   0.000   0.200   0.000    0.00
  16.250    4.45   12.68    0.52   0.000   0.200   0.000    0.00
  16.300    4.39   10.74    0.67   0.000   0.200   0.000    0.00
  16.350    4.45   11.64    0.52   0.000   0.200   0.000    0.00
  16.400    4.56    9.09    0.57   0.000   0.200   0.000    0.00
  16.450    4.53   10.64    0.20   0.000   0.200   0.000    0.00
  16.500    4.58   13.83    0.21   0.000   0.200   0.000    0.00
  16.550    4.34   17.01    0.44   0.000   0.200   0.000    0.00
  16.600    4.30   15.07    0.34   0.000   0.200   0.000    0.00
  16.650    4.41   16.07    0.01   0.000   0.200   0.000    0.00
  16.700    4.25   16.31   -0.05   0.000   0.200   0.000    0.00
  16.750    4.19   16.91    0.20   0.000   0.200   0.000    0.00
  16.800    4.06   13.25    0.07   0.000   0.200   0.000    0.00
  16.850    4.12   12.71   -0.01   0.000   0.200   0.000    0.00
  16.900    4.25   16.55   -0.07   0.000   0.200   0.000    0.00
  16.950    4.10   15.79   -0.26   0.000   0.200   0.000    0.00
  17.000    4.14   17.65   -0.20   0.000   0.200   0.000    0.00
  17.050    4.07   17.89   -0.13   0.000   0.200   0.000    0.00
  17.100    3.83   16.16   -0.09   0.000   0.200   0.000    0.00
  17.150    3.91   15.13    0.06   0.000   0.200   0.000    0.00
  17.200    3.94   11.81    0.11   0.000   0.200   0.000    0.00
  17.250    3.95   10.81    0.07   0.000   0.200   0.000    0.00
  17.300    3.77   12.11    0.09   0.000   0.200   0.000    0.00
  17.350    3.69   11.58    0.24   0.000   0.200   0.000    0.00
  17.400    3.68   14.22    0.18   0.000   0.200   0.000    0.00
  17.450    3.50   13.07    0.17   0.000   0.200   0.000    0.00
  17.500    3.65   16.90    0.14   0.000   0.200   0.000    0.00
  17.550    3.83   18.50    0.45   0.000   0.200   0.000    0.00
  17.600    3.81   17.26    0.20   0.000   0.200   0.000    0.00
  17.650    3.86   12.45    0.18   0.000   0.200   0.000    0.00
  17.700    4.00    8.19    0.33   0.000   0.200   0.000    0.00
  17.750    3.83    4.67    0.39   0.000   0.200   0.000    0.00
  17.800    3.63    3.15    0.45   0.000   0.200   0.000    0.00
  17.850    3.98    3.33    0.42   0.000   0.200   0.000    0.00
  17.900    3.92    7.29    0.47   0.000   0.200   0.000    0.00
  17.950    3.52    3.67    0.38   0.000   0.200   0.000    0.00
  18.000    3.46    2.13    0.45   0.000   0.200   0.000    0.00
  18.050    3.48    4.97    0.46   0.000   0.200   0.000    0.00
  18.100    3.50    5.84    0.37   0.000   0.200   0.000    0.00
  18.150    3.81    2.17    0.40   0.000   0.200   0.000    0.00
  18.200    3.48    1.20    0.35   0.000   0.200   0.000    0.00
  18.250    3.58    0.60    0.37   0.000   0.200   0.000    0.00
  18.300    3.59   -4.95    0.48   0.000   0.200   0.000    0.00
  18.350    3.76   -2.06    0.60   0.000   0.200   0.000    0.00
  18.400    3.64   -3.45    0.51   0.000   0.200   0.000    0.00
  18.450    3.72   -3.52    0.24   0.000   0.200   0.000    0.00
  18.500    4.03   -3.17    0.21   0.000   0.200   0.000    0.00
  18.550    4.09   -0.73   -0.14   0.000   0.200   0.000    0.00
  18.600    4.48   -1.17   -0.34   0.000   0.200   0.000    0.00
  18.650    4.27   -3.46   -0.47   0.000   0.200   0.000    0.00
  18.700    4.00   -3.07   -0.19   0.000   0.200   0.000    0.00
  18.750    3.99   -5.58   -0.36   0.000   0.200   0.000    0.00
  18.800    3.75   -6.79   -0.26   0.000   0.200   0.000    0.00
  18.850    3.79   -4.07   -0.15   0.000   0.200   0.000    0.00
  18.900    3.68    0.02   -0.15   0.000   0.200   0.000    0.00
  18.950    3.63   -1.51   -0.17   0.000   0.200   0.000    0.00
  19.000    3.58    1.42    0.08   0.000   0.200   0.000    0.00
  19.050    3.81   -0.03    0.02   0.000   0.200   0.000    0.00
  19.100    3.90   -4.24   -0.05   0.000   0.200   0.000    0.00
  19.150    3.93   -6.54   -0.29   0.000   0.200   0.000    0.00
  19.200    4.12   -6.27   -0.38   0.000   0.200   0.000    0.00
  19.250    4.18   -6.14   -0.26   0.000   0.200   0.000    0.00
  19.300    4.09   -2.66   -0.25   0.000   0.200   0.000    0.00
  19.350    4.01   -2.39   -0.39   0.000   0.200   0.000    0.00
  19.400    4.10   -1.10   -0.29   0.000   0.200   0.000    0.00
  19.450    4.05   -3.99   -0.04   0.000   0.200   0.000    0.00
  19.500    3.93   -6.67   -0.15   0.000   0.200   0.000    0.00
  19.550    4.00   -5.67   -0.26   0.000   0.200   0.000    0.00
  19.600    4.41    0.43   -0.29   0.000   0.200   0.000    0.00
  19.650    4.29   -1.11   -0.11   0.000   0.200   0.000    0.00
  19.700    4.35   -2.32    0.17   0.000   0.200   0.000    0.00
  19.750    4.19   -2.73    0.08   0.000   0.200   0.000    0.00
  19.800    4.28   -2.17   -0.34   0.000   0.200   0.000    0.00
  19.850    4.33   -2.48   -0.49   0.000   0.200   0.000    0.00
  19.900    4.30   -5.55   -0.27   0.000   0.200   0.000    0.00
  19.950    4.32   -0.63   -0.29   0.000   0.200   0.000    0.00
  20.000    4.41   -1.42   -0.61   0.000   0.200   0.000    0.00
  20.050    4.56   -2.33   -0.43   0.000   0.200   0.000    0.00
  20.100    4.65   -4.50   -0.56   0.000   0.200   0.000    0.00
  20.150    4.50   -3.50   -0.48   0.000   0.200   0.000    0.00
  20.200    4.24    0.73   -0.24   0.000   0.200   0.000    0.00
  20.250    4.10    0.77   -0.40   0.000   0.200   0.000    0.00
  20.300    4.28   -2.42   -0.13   0.000   0.200   0.000    0.00
  20.350    4.42   -3.65   -0.13   0.000   0.200   0.000    0.00
  20.400    4.15   -3.11   -0.28   0.000   0.200   0.000    0.00
  20.450    4.16   -2.01   -0.39   0.000   0.200   0.000    0.00
  20.500    4.25   -0.85    0.04   0.000   0.200   0.000    0.00
  20.550    4.18   -5.27    0.07   0.000   0.200   0.000    0.00
  20.600    4.18   -5.08    0.05   0.000   0.200   0.000    0.00
  20.650    4.34   -5.18   -0.04   0.000   0.200   0.000    0.00
  20.700    4.45    1.39    0.03   0.000   0.200   0.000    0.00
  20.750    4.55    2.66    0.36   0.000   0.200   0.000    0.00
  20.800    4.30   -0.20    0.48   0.000   0.200   0.000    0.00
  20.850    4.39   -1.88    0.65   0.000   0.200   0.000    0.00
  20.900    4.30   -1.81    0.52   0.000   0.200   0.000    0.00
  20.950    4.41   -2.91    0.50   0.000   0.200   0.000    0.00
  21.000    4.25   -3.49    0.67   0.000   0.200   0.000    0.00
  21.050    3.99   -6.31    1.00   0.000   0.200   0.000    0.00
  21.100    4.00   -3.61    0.79   0.000   0.200   0.000    0.00
  21.150    4.11   -1.34    0.81   0.000   0.200   0.000    0.00
  21.200    3.96   -2.00    0.67   0.000   0.200   0.000    0.00
  21.250    3.71   -2.88    0.39   0.000   0.200   0.000    0.00
  21.300    3.48    2.00    0.66   0.000   0.200   0.000    0.00
  21.350    3.50    1.73    0.88   0.000   0.200   0.000    0.00
  21.400    3.49    1.56    0.92   0.000   0.200   0.000    0.00
  21.450    3.24    0.79    1.04   0.000   0.200   0.000    0.00
  21.500    3.43    2.15    1.07   0.000   0.200   0.000    0.00
  21.550    3.29   -1.98    1.24   0.000   0.200   0.000    0.00
  21.600    3.56   -7.92    1.16   0.000   0.200   0.000    0.00
  21.650    3.65   -2.23    1.09   0.000   0.200   0.000    0.00
  21.700    3.76   -0.45    0.98   0.000   0.200   0.000    0.00
  21.750    4.05   -0.45    1.01   0.000   0.200   0.000    0.00
  21.800    4.13   -2.65    1.38   0.000   0.200   0.000    0.00
  21.850    4.17   -3.32    1.27   0.000   0.200   0.000    0.00
  21.900    4.38   -1.85    0.90   0.000   0.200   0.000    0.00
  21.950    4.52    1.22    0.90   0.000   0.200   0.000    0.00
  22.000    4.69   -3.72    0.94   0.000   0.200   0.000    0.00
  22.050    4.78   -4.70    0.88   0.000   0.200   0.000    0.00
  22.100    4.90   -3.00    1.15   0.000   0.200   0.000    0.00
  22.150    4.76   -0.51    0.94   0.000   0.200   0.000    0.00
  22.200    5.00    0.72    0.69   0.000   0.200   0.000    0.00
  22.250    5.08   -3.82    0.69   0.000   0.200   0.000    0.00
  22.300    4.86   -5.14    0.76   0.000   0.200   0.000    0.00
  22.350    4.91   -3.24    0.80   0.000   0.200   0.000    0.00