! This hub-height wind-speed file was generated by TurbSim (v1.06.00, 21-Sep-2012) on 16-Jun-2018 at 18:38:02.
!
! The requested statistics for this data were:
!    Mean Total Wind Speed =   21.000 m/s
!    Turbulence Intensity  =   18.325%
!
!   Time  HorSpd  WndDir  VerSpd  HorShr  VerShr  LnVShr  GstSpd
!  (sec)   (m/s)   (deg)   (m/s)     (-)     (-)     (-)   (m/s)
   0.000   20.86    6.56   -3.01   0.000   0.200   0.000    0.00
   0.050   19.90   10.90   -4.07   0.000   0.200   0.000    0.00
   0.100   19.78    9.70   -3.30   0.000   0.200   0.000    0.00
   0.150   20.10    5.84   -3.67   0.000   0.200   0.000    0.00
   0.200   20.66    7.16   -3.06   0.000   0.200   0.000    0.00
   0.250   21.33    1.09   -4.11   0.000   0.200   0.000    0.00
   0.300   21.89    3.08   -4.25   0.000   0.200   0.000    0.00
   0.350   21.65    3.62   -2.86   0.000   0.200   0.000    0.00
   0.400   21.58    1.92   -2.61   0.000   0.200   0.000    0.00
   0.450   21.76    4.17   -2.22   0.000   0.200   0.000    0.00
   0.500   22.25    7.12   -2.52   0.000   0.200   0.000    0.00
   0.550   22.01    7.00   -2.01   0.000   0.200   0.000    0.00
   0.600   22.96    7.93   -2.00   0.000   0.200   0.000    0.00
   0.650   23.67    2.81   -1.50   0.000   0.200   0.000    0.00
   0.700   24.23   -0.62   -1.30   0.000   0.200   0.000    0.00
   0.750   25.71    2.05   -0.76   0.000   0.200   0.000    0.00
   0.800   25.56    2.17   -1.37   0.000   0.200   0.000    0.00
   0.850   25.04    1.51   -1.94   0.000   0.200   0.000    0.00
   0.900   24.61    2.40   -0.11   0.000   0.200   0.000    0.00
   0.950   23.33    4.78    0.16   0.000   0.200   0.000    0.00
   1.000   23.41    2.86   -0.92   0.000   0.200   0.000    0.00
   1.050   23.24    4.52   -0.73   0.000   0.200   0.000    0.00
   1.100   22.45    3.78    0.42   0.000   0.200   0.000    0.00
   1.150   22.93    6.51    0.68   0.000   0.200   0.000    0.00
   1.200   23.48    8.43    0.20   0.000   0.200   0.000    0.00
   1.250   22.74   11.28   -0.15   0.000   0.200   0.000    0.00
   1.300   22.30    8.37    0.13   0.000   0.200   0.000    0.00
   1.350   22.41    8.06    0.09   0.000   0.200   0.000    0.00
   1.400   21.24    7.69   -0.94   0.000   0.200   0.000    0.00
   1.450   21.33    9.31   -1.32   0.000   0.200   0.000    0.00
   1.500   21.11    7.57   -2.14   0.000   0.200   0.000    0.00
   1.550   22.05    5.57   -3.75   0.000   0.200   0.000    0.00
   1.600   22.75    5.55   -4.83   0.000   0.200   0.000    0.00
   1.650   21.30    7.79   -4.37   0.000   0.200   0.000    0.00
   1.700   21.07    5.72   -3.25   0.000   0.200   0.000    0.00
   1.750   22.19    6.02   -2.53   0.000   0.200   0.000    0.00
   1.800   23.01    5.27   -1.28   0.000   0.200   0.000    0.00
   1.850   23.08    6.31   -1.17   0.000   0.200   0.000    0.00
   1.900   23.47   10.10   -0.50   0.000   0.200   0.000    0.00
   1.950   23.29    8.45   -1.30   0.000   0.200   0.000    0.00
   2.000   22.87    6.79   -1.09   0.000   0.200   0.000    0.00
   2.050   23.01    7.19    0.03   0.000   0.200   0.000    0.00
   2.100   21.93    3.34    1.01   0.000   0.200   0.000    0.00
   2.150   21.35    5.26    1.89   0.000   0.200   0.000    0.00
   2.200   22.03    7.09    3.66   0.000   0.200   0.000    0.00
   2.250   21.29    2.68    4.38   0.000   0.200   0.000    0.00
   2.300   21.43    4.58    3.27   0.000   0.200   0.000    0.00
   2.350   20.95    5.64    1.84   0.000   0.200   0.000    0.00
   2.400   20.41    4.42    1.90   0.000   0.200   0.000    0.00
   2.450   20.23   -0.35    1.38   0.000   0.200   0.000    0.00
   2.500   20.41   -0.01    0.66   0.000   0.200   0.000    0.00
   2.550   21.38   -0.86   -0.04   0.000   0.200   0.000    0.00
   2.600   21.59    0.66    0.45   0.000   0.200   0.000    0.00
   2.650   22.53    1.30    1.04   0.000   0.200   0.000    0.00
   2.700   22.75   -0.05    0.96   0.000   0.200   0.000    0.00
   2.750   22.82   -2.32    0.75   0.000   0.200   0.000    0.00
   2.800   21.10   -0.73    1.40   0.000   0.200   0.000    0.00
   2.850   21.12    0.50    1.16   0.000   0.200   0.000    0.00
   2.900   20.33    3.99    1.27   0.000   0.200   0.000    0.00
   2.950   19.58    3.15    2.12   0.000   0.200   0.000    0.00
   3.000   20.16    0.47    2.04   0.000   0.200   0.000    0.00
   3.050   19.83    1.28    2.75   0.000   0.200   0.000    0.00
   3.100   19.77    1.80    2.35   0.000   0.200   0.000    0.00
   3.150   21.12    0.09    4.86   0.000   0.200   0.000    0.00
   3.200   20.38    0.46    4.16   0.000   0.200   0.000    0.00
   3.250   19.82   -0.40    4.93   0.000   0.200   0.000    0.00
   3.300   19.69   -1.84    6.04   0.000   0.200   0.000    0.00
   3.350   19.83    0.94    6.03   0.000   0.200   0.000    0.00
   3.400   19.62    2.27    5.22   0.000   0.200   0.000    0.00
   3.450   19.44    2.53    4.77   0.000   0.200   0.000    0.00
   3.500   18.47    1.37    4.66   0.000   0.200   0.000    0.00
   3.550   18.38    0.56    4.42   0.000   0.200   0.000    0.00
   3.600   18.33   -2.15    2.98   0.000   0.200   0.000    0.00
   3.650   19.59   -3.61    2.47   0.000   0.200   0.000    0.00
   3.700   20.44   -4.76    2.71   0.000   0.200   0.000    0.00
   3.750   20.13    0.36    2.57   0.000   0.200   0.000    0.00
   3.800   20.98    1.63    1.66   0.000   0.200   0.000    0.00
   3.850   20.82   -0.15    2.75   0.000   0.200   0.000    0.00
   3.900   20.24    1.08    2.15   0.000   0.200   0.000    0.00
   3.950   20.93    1.16    2.36   0.000   0.200   0.000    0.00
   4.000   21.38    1.19    2.94   0.000   0.200   0.000    0.00
   4.050   21.54    2.86    2.94   0.000   0.200   0.000    0.00
   4.100   22.25    0.32    3.03   0.000   0.200   0.000    0.00
   4.150   22.53   -1.40    2.33   0.000   0.200   0.000    0.00
   4.200   21.98   -2.10    3.09   0.000   0.200   0.000    0.00
   4.250   23.01    1.29    3.33   0.000   0.200   0.000    0.00
   4.300   22.78   -0.82    3.72   0.000   0.200   0.000    0.00
   4.350   23.32   -0.70    3.94   0.000   0.200   0.000    0.00
   4.400   23.14   -1.02    3.71   0.000   0.200   0.000    0.00
   4.450   22.33   -2.58    3.05   0.000   0.200   0.000    0.00
   4.500   21.96   -2.54    1.66   0.000   0.200   0.000    0.00
   4.550   22.12   -4.04    1.22   0.000   0.200   0.000    0.00
   4.600   22.65   -4.61   -0.28   0.000   0.200   0.000    0.00
   4.650   21.32   -1.84    1.73   0.000   0.200   0.000    0.00
   4.700   19.79    2.53    0.69   0.000   0.200   0.000    0.00
   4.750   20.26    0.61    1.81   0.000   0.200   0.000    0.00
   4.800   20.00   -0.56    1.47   0.000   0.200   0.000    0.00
   4.850   19.40    2.39    1.46   0.000   0.200   0.000    0.00
   4.900   18.93   -0.15    2.78   0.000   0.200   0.000    0.00
   4.950   19.19   -0.08    2.54   0.000   0.200   0.000    0.00
   5.000   19.01    2.13    2.41   0.000   0.200   0.000    0.00
   5.050   19.44    3.43    0.99   0.000   0.200   0.000    0.00
   5.100   19.04   -0.94    0.40   0.000   0.200   0.000    0.00
   5.150   18.39   -0.18    0.30   0.000   0.200   0.000    0.00
   5.200   20.11    0.25    0.63   0.000   0.200   0.000    0.00
   5.250   19.13    0.50    1.80   0.000   0.200   0.000    0.00
   5.300   18.12    3.98    2.56   0.000   0.200   0.000    0.00
   5.350   19.07    5.49    1.48   0.000   0.200   0.000    0.00
   5.400   19.66    5.12    2.47   0.000   0.200   0.000    0.00
   5.450   18.48    3.87    2.66   0.000   0.200   0.000    0.00
   5.500   18.69    2.27    1.40   0.000   0.200   0.000    0.00
   5.550   18.31    1.67    2.05   0.000   0.200   0.000    0.00
   5.600   18.30    6.45    2.10   0.000   0.200   0.000    0.00
   5.650   18.86    9.58    2.37   0.000   0.200   0.000    0.00
   5.700   19.06   10.67    2.55   0.000   0.200   0.000    0.00
   5.750   19.29   13.36    2.10   0.000   0.200   0.000    0.00
   5.800   20.53   20.53    0.43   0.000   0.200   0.000    0.00
   5.850   20.48   16.71   -0.08   0.000   0.200   0.000    0.00
   5.900   19.90   16.96    0.35   0.000   0.200   0.000    0.00
   5.950   19.89   18.35   -1.03   0.000   0.200   0.000    0.00
   6.000   18.83   18.53   -0.85   0.000   0.200   0.000    0.00
   6.050   19.07   17.62   -1.43   0.000   0.200   0.000    0.00
   6.100   18.52   17.70   -1.13   0.000   0.200   0.000    0.00
   6.150   18.54   15.53   -0.89   0.000   0.200   0.000    0.00
   6.200   18.26   15.31    0.72   0.000   0.200   0.000    0.00
   6.250   18.46   14.94   -0.14   0.000   0.200   0.000    0.00
   6.300   17.95   15.76   -0.58   0.000   0.200   0.000    0.00
   6.350   17.76   12.76   -0.73   0.000   0.200   0.000    0.00
   6.400   17.23   17.03   -1.04   0.000   0.200   0.000    0.00
   6.450   16.77   17.69   -0.92   0.000   0.200   0.000    0.00
   6.500   16.37   13.30   -1.34   0.000   0.200   0.000    0.00
   6.550   14.56   13.14   -2.76   0.000   0.200   0.000    0.00
   6.600   14.53   12.87   -1.20   0.000   0.200   0.000    0.00
   6.650   15.48   11.55   -1.58   0.000   0.200   0.000    0.00
   6.700   15.86   11.71   -0.01   0.000   0.200   0.000    0.00
   6.750   16.62   11.88    1.36   0.000   0.200   0.000    0.00
   6.800   16.06   14.59    1.11   0.000   0.200   0.000    0.00
   6.850   18.01   19.04    1.59   0.000   0.200   0.000    0.00
   6.900   17.43   19.71   -0.20   0.000   0.200   0.000    0.00
   6.950   18.83   23.60   -0.80   0.000   0.200   0.000    0.00
   7.000   18.40   26.58   -0.89   0.000   0.200   0.000    0.00
   7.050   19.37   28.43   -0.72   0.000   0.200   0.000    0.00
   7.100   19.81   26.14   -2.01   0.000   0.200   0.000    0.00
   7.150   19.67   23.99   -1.19   0.000   0.200   0.000    0.00
   7.200   19.81   24.08    0.31   0.000   0.200   0.000    0.00
   7.250   17.84   21.76   -0.02   0.000   0.200   0.000    0.00
   7.300   18.58   17.81    0.79   0.000   0.200   0.000    0.00
   7.350   19.61   17.24    1.20   0.000   0.200   0.000    0.00
   7.400   19.77   19.61    0.80   0.000   0.200   0.000    0.00
   7.450   20.75   19.43    1.46   0.000   0.200   0.000    0.00
   7.500   20.67   20.89    1.00   0.000   0.200   0.000    0.00
   7.550   20.11   17.51    2.43   0.000   0.200   0.000    0.00
   7.600   19.52   13.37    3.00   0.000   0.200   0.000    0.00
   7.650   19.77   18.12    3.19   0.000   0.200   0.000    0.00
   7.700   18.03   14.54    4.16   0.000   0.200   0.000    0.00
   7.750   17.78   14.36    3.90   0.000   0.200   0.000    0.00
   7.800   17.63   10.99    3.16   0.000   0.200   0.000    0.00
   7.850   18.33   10.42    2.80   0.000   0.200   0.000    0.00
   7.900   19.40   10.67    2.77   0.000   0.200   0.000    0.00
   7.950   18.88    9.00    2.43   0.000   0.200   0.000    0.00
   8.000   19.50    8.10    3.23   0.000   0.200   0.000    0.00
   8.050   19.55    6.23    2.05   0.000   0.200   0.000    0.00
   8.100   19.95    8.65    0.75   0.000   0.200   0.000    0.00
   8.150   19.93    7.54    2.41   0.000   0.200   0.000    0.00
   8.200   18.48    5.26    2.79   0.000   0.200   0.000    0.00
   8.250   19.28    4.10    1.74   0.000   0.200   0.000    0.00
   8.300   20.83    4.12    0.63   0.000   0.200   0.000    0.00
   8.350   19.97    6.17    0.01   0.000   0.200   0.000    0.00
   8.400   19.62    1.92    0.78   0.000   0.200   0.000    0.00
   8.450   20.64    6.38    1.38   0.000   0.200   0.000    0.00
   8.500   20.48    5.95    2.60   0.000   0.200   0.000    0.00
   8.550   19.69    4.17    3.51   0.000   0.200   0.000    0.00
   8.600   20.20    5.70    1.81   0.000   0.200   0.000    0.00
   8.650   20.56    4.26    2.47   0.000   0.200   0.000    0.00
   8.700   20.75    2.56    2.83   0.000   0.200   0.000    0.00
   8.750   19.86    1.37    3.12   0.000   0.200   0.000    0.00
   8.800   19.95    1.17    2.35   0.000   0.200   0.000    0.00
   8.850   19.66    0.89    1.93   0.000   0.200   0.000    0.00
   8.900   20.37   -0.73    1.92   0.000   0.200   0.000    0.00
   8.950   20.21    1.92    0.97   0.000   0.200   0.000    0.00
   9.000   19.34    1.66    1.90   0.000   0.200   0.000    0.00
   9.050   19.92    5.60    2.48   0.000   0.200   0.000    0.00
   9.100   20.13    1.62    2.09   0.000   0.200   0.000    0.00
   9.150   19.66    1.40    2.30   0.000   0.200   0.000    0.00
   9.200   19.82    2.06    3.23   0.000   0.200   0.000    0.00
   9.250   20.24    0.23    1.95   0.000   0.200   0.000    0.00
   9.300   20.29    0.28    2.13   0.000   0.200   0.000    0.00
   9.350   19.49   -2.03    1.61   0.000   0.200   0.000    0.00
   9.400   19.21    1.79    1.88   0.000   0.200   0.000    0.00
   9.450   18.66    4.38    2.43   0.000   0.200   0.000    0.00
   9.500   19.50    5.28    1.61   0.000   0.200   0.000    0.00
   9.550   19.43    4.17    2.26   0.000   0.200   0.000    0.00
   9.600   20.49    2.92    2.66   0.000   0.200   0.000    0.00
   9.650   19.82    3.96    2.88   0.000   0.200   0.000    0.00
   9.700   18.49    4.71    1.73   0.000   0.200   0.000    0.00
   9.750   18.44    3.84   -0.47   0.000   0.200   0.000    0.00
   9.800   17.13    4.97   -0.45   0.000   0.200   0.000    0.00
   9.850   16.41    4.32   -0.98   0.000   0.200   0.000    0.00
   9.900   16.35    6.27   -0.18   0.000   0.200   0.000    0.00
   9.950   16.01   10.71   -0.33   0.000   0.200   0.000    0.00
  10.000   16.07   15.24    0.18   0.000   0.200   0.000    0.00
  10.050   15.38   16.42   -0.63   0.000   0.200   0.000    0.00
  10.100   16.22   18.73   -0.73   0.000   0.200   0.000    0.00
  10.150   17.16   13.37    0.39   0.000   0.200   0.000    0.00
  10.200   17.76    9.30    0.15   0.000   0.200   0.000    0.00
  10.250   17.16    6.90    1.59   0.000   0.200   0.000    0.00
  10.300   17.50    6.11    2.41   0.000   0.200   0.000    0.00
  10.350   17.34    5.54    1.24   0.000   0.200   0.000    0.00
  10.400   18.08    5.06    0.35   0.000   0.200   0.000    0.00
  10.450   17.85    7.11    2.44   0.000   0.200   0.000    0.00
  10.500   18.50   11.63    2.13   0.000   0.200   0.000    0.00
  10.550   18.42   10.47    1.98   0.000   0.200   0.000    0.00
  10.600   18.29   11.72    2.74   0.000   0.200   0.000    0.00
  10.650   17.78   14.12    3.45   0.000   0.200   0.000    0.00
  10.700   17.61   16.57    3.21   0.000   0.200   0.000    0.00
  10.750   18.08   11.37    2.57   0.000   0.200   0.000    0.00
  10.800   17.97   15.82    2.02   0.000   0.200   0.000    0.00
  10.850   17.23   16.10    0.75   0.000   0.200   0.000    0.00
  10.900   17.53   14.34    0.94   0.000   0.200   0.000    0.00
  10.950   18.68   16.74    1.18   0.000   0.200   0.000    0.00
  11.000   16.80   14.40    1.45   0.000   0.200   0.000    0.00
  11.050   17.29   14.77    0.36   0.000   0.200   0.000    0.00
  11.100   18.21   19.08    0.23   0.000   0.200   0.000    0.00
  11.150   17.55   17.87    0.58   0.000   0.200   0.000    0.00
  11.200   16.78   17.28    1.22   0.000   0.200   0.000    0.00
  11.250   16.78   19.67    1.13   0.000   0.200   0.000    0.00
  11.300   17.67   21.84    1.09   0.000   0.200   0.000    0.00
  11.350   17.27   22.37    1.60   0.000   0.200   0.000    0.00
  11.400   16.83   22.14    1.10   0.000   0.200   0.000    0.00
  11.450   15.96   21.25    0.13   0.000   0.200   0.000    0.00
  11.500   16.03   24.46   -0.25   0.000   0.200   0.000    0.00
  11.550   18.03   22.47    0.16   0.000   0.200   0.000    0.00
  11.600   16.77   18.18    0.32   0.000   0.200   0.000    0.00
  11.650   17.87   17.54   -0.66   0.000   0.200   0.000    0.00
  11.700   17.17   15.01   -0.74   0.000   0.200   0.000    0.00
  11.750   17.13   15.52   -0.82   0.000   0.200   0.000    0.00
  11.800   17.62   13.94   -1.33   0.000   0.200   0.000    0.00
  11.850   17.26   10.04   -1.53   0.000   0.200   0.000    0.00
  11.900   17.92   13.40   -0.39   0.000   0.200   0.000    0.00
  11.950   16.67    9.66   -0.44   0.000   0.200   0.000    0.00
  12.000   17.07    8.47   -0.69   0.000   0.200   0.000    0.00
  12.050   16.31    9.77    0.08   0.000   0.200   0.000    0.00
  12.100   16.20    8.89    0.75   0.000   0.200   0.000    0.00
  12.150   16.33    3.35    1.57   0.000   0.200   0.000    0.00
  12.200   16.56    3.03    1.02   0.000   0.200   0.000    0.00
  12.250   16.70    3.83    0.87   0.000   0.200   0.000    0.00
  12.300   16.91    2.86    0.85   0.000   0.200   0.000    0.00
  12.350   17.44    3.86    0.40   0.000   0.200   0.000    0.00
  12.400   17.82    0.03    1.66   0.000   0.200   0.000    0.00
  12.450   17.06    0.41    1.88   0.000   0.200   0.000    0.00
  12.500   15.88    1.85    1.96   0.000   0.200   0.000    0.00
  12.550   14.59    9.28    1.78   0.000   0.200   0.000    0.00
  12.600   14.74   10.99    2.33   0.000   0.200   0.000    0.00
  12.650   13.99   17.18    2.95   0.000   0.200   0.000    0.00
  12.700   13.82   14.72    1.79   0.000   0.200   0.000    0.00
  12.750   14.52   13.75    1.60   0.000   0.200   0.000    0.00
  12.800   14.27   15.44    1.58   0.000   0.200   0.000    0.00
  12.850   14.04   15.85    1.04   0.000   0.200   0.000    0.00
  12.900   13.49   10.74    0.81   0.000   0.200   0.000    0.00
  12.950   13.44   11.61    0.64   0.000   0.200   0.000    0.00
  13.000   13.41   12.21    0.22   0.000   0.200   0.000    0.00
  13.050   11.71   10.67    1.82   0.000   0.200   0.000    0.00
  13.100   12.77    7.24   -0.49   0.000   0.200   0.000    0.00
  13.150   12.26    3.86   -0.23   0.000   0.200   0.000    0.00
  13.200   13.45    7.48   -0.28   0.000   0.200   0.000    0.00
  13.250   14.41    4.08   -0.81   0.000   0.200   0.000    0.00
  13.300   16.13    6.01   -1.40   0.000   0.200   0.000    0.00
  13.350   14.73    2.95   -0.76   0.000   0.200   0.000    0.00
  13.400   15.08    3.97   -1.91   0.000   0.200   0.000    0.00
  13.450   14.73    3.55   -2.07   0.000   0.200   0.000    0.00
  13.500   15.02    4.88   -2.26   0.000   0.200   0.000    0.00
  13.550   15.47    3.57   -3.36   0.000   0.200   0.000    0.00
  13.600   15.27    0.53   -3.96   0.000   0.200   0.000    0.00
  13.650   13.98    0.86   -2.59   0.000   0.200   0.000    0.00
  13.700   13.93    2.30   -1.76   0.000   0.200   0.000    0.00
  13.750   13.11    7.05   -1.93   0.000   0.200   0.000    0.00
  13.800   12.43    8.39   -1.34   0.000   0.200   0.000    0.00
  13.850   12.74    1.94   -1.89   0.000   0.200   0.000    0.00
  13.900   14.19    1.28   -2.45   0.000   0.200   0.000    0.00
  13.950   14.42   -4.95   -3.35   0.000   0.200   0.000    0.00
  14.000   13.84   -3.16   -3.45   0.000   0.200   0.000    0.00
  14.050   13.50   -2.14   -2.66   0.000   0.200   0.000    0.00
  14.100   13.70   -6.62   -3.42   0.000   0.200   0.000    0.00
  14.150   13.33   -5.89   -3.08   0.000   0.200   0.000    0.00
  14.200   13.85   -2.14   -2.73   0.000   0.200   0.000    0.00
  14.250   15.13    0.09   -3.20   0.000   0.200   0.000    0.00
  14.300   14.42    0.32   -3.06   0.000   0.200   0.000    0.00
  14.350   15.97    0.96   -1.09   0.000   0.200   0.000    0.00
  14.400   16.05    2.17   -0.34   0.000   0.200   0.000    0.00
  14.450   15.07    0.30    0.77   0.000   0.200   0.000    0.00
  14.500   15.99   -1.39   -0.22   0.000   0.200   0.000    0.00
  14.550   15.36    1.98   -1.79   0.000   0.200   0.000    0.00
  14.600   14.75    5.85   -0.95   0.000   0.200   0.000    0.00
  14.650   13.38   13.00   -1.43   0.000   0.200   0.000    0.00
  14.700   13.78   14.89   -1.97   0.000   0.200   0.000    0.00
  14.750   13.54   10.28   -2.14   0.000   0.200   0.000    0.00
  14.800   13.50    8.26   -2.89   0.000   0.200   0.000    0.00
  14.850   13.52    4.08   -3.31   0.000   0.200   0.000    0.00
  14.900   14.85    4.80   -1.79   0.000   0.200   0.000    0.00
  14.950   14.32    5.52   -2.10   0.000   0.200   0.000    0.00
  15.000   15.83    8.74   -1.13   0.000   0.200   0.000    0.00
  15.050   16.10   12.34    0.88   0.000   0.200   0.000    0.00
  15.100   16.72   13.56    1.71   0.000   0.200   0.000    0.00
  15.150   18.42   11.34    2.60   0.000   0.200   0.000    0.00
  15.200   16.74   11.11    2.68   0.000   0.200   0.000    0.00
  15.250   16.48   10.05    2.25   0.000   0.200   0.000    0.00
  15.300   16.33   10.10    1.04   0.000   0.200   0.000    0.00
  15.350   16.78    9.87    0.56   0.000   0.200   0.000    0.00
  15.400   16.47    9.67   -0.28   0.000   0.200   0.000    0.00
  15.450   16.76   12.12   -0.30   0.000   0.200   0.000    0.00
  15.500   17.13   14.75    1.03   0.000   0.200   0.000    0.00
  15.550   16.78   14.55    0.51   0.000   0.200   0.000    0.00
  15.600   16.82    9.39   -0.92   0.000   0.200   0.000    0.00
  15.650   17.44    7.56    0.19   0.000   0.200   0.000    0.00
  15.700   18.36    8.81    0.30   0.000   0.200   0.000    0.00
  15.750   19.36    7.35   -0.46   0.000   0.200   0.000    0.00
  15.800   19.15    0.77   -0.86   0.000   0.200   0.000    0.00
  15.850   19.86    2.84   -0.10   0.000   0.200   0.000    0.00
  15.900   20.57    2.83    0.17   0.000   0.200   0.000    0.00
  15.950   21.60   -0.13    0.59   0.000   0.200   0.000    0.00
  16.000   20.37    0.82   -0.18   0.000   0.200   0.000    0.00
  16.050   20.76   -0.30   -0.06   0.000   0.200   0.000    0.00
  16.100   21.36   -6.00   -1.08   0.000   0.200   0.000    0.00
  16.150   22.96   -5.53   -0.60   0.000   0.200   0.000    0.00
  16.200   23.37  -10.72   -0.27   0.000   0.200   0.000    0.00
  16.250   21.62   -9.22    1.67   0.000   0.200   0.000    0.00
  16.300   20.51   -4.94    1.32   0.000   0.200   0.000    0.00
  16.350   20.59   -0.59   -0.26   0.000   0.200   0.000    0.00
  16.400   22.01   -1.13   -0.76   0.000   0.200   0.000    0.00
  16.450   21.45   -6.56    0.38   0.000   0.200   0.000    0.00
  16.500   21.62   -4.32   -0.45   0.000   0.200   0.000    0.00
  16.550   20.80   -2.12   -1.55   0.000   0.200   0.000    0.00
  16.600   20.99    0.65   -0.57   0.000   0.200   0.000    0.00
  16.650   21.99    0.18   -0.37   0.000   0.200   0.000    0.00
  16.700   21.56    0.01   -1.10   0.000   0.200   0.000    0.00
  16.750   22.18    0.10   -1.92   0.000   0.200   0.000    0.00
  16.800   22.43    1.96   -1.11   0.000   0.200   0.000    0.00
  16.850   20.70    2.91    0.24   0.000   0.200   0.000    0.00
  16.900   20.17    1.09    1.19   0.000   0.200   0.000    0.00
  16.950   19.57    2.94   -0.66   0.000   0.200   0.000    0.00
  17.000   19.69   -0.16   -2.22   0.000   0.200   0.000    0.00
  17.050   19.96    5.08   -1.86   0.000   0.200   0.000    0.00
  17.100   19.85    1.42   -1.06   0.000   0.200   0.000    0.00
  17.150   19.72   -1.54   -1.13   0.000   0.200   0.000    0.00
  17.200   19.89   -0.49   -1.51   0.000   0.200   0.000    0.00
  17.250   20.07   -3.39   -1.62   0.000   0.200   0.000    0.00
  17.300   19.30   -6.38   -0.30   0.000   0.200   0.000    0.00
  17.350   19.49   -6.47    0.04   0.000   0.200   0.000    0.00
  17.400   18.90   -5.64    0.36   0.000   0.200   0.000    0.00
  17.450   19.59   -6.08    0.39   0.000   0.200   0.000    0.00
  17.500   19.13   -7.80    0.54   0.000   0.200   0.000    0.00
  17.550   18.03   -6.60    0.78   0.000   0.200   0.000    0.00
  17.600   18.69   -5.36   -0.17   0.000   0.200   0.000    0.00
  17.650   18.84   -7.26    0.79   0.000   0.200   0.000    0.00
  17.700   19.31   -6.45    0.35   0.000   0.200   0.000    0.00
  17.750   19.58   -8.21    0.34   0.000   0.200   0.000    0.00
  17.800   19.61  -11.37    0.02   0.000   0.200   0.000    0.00
  17.850   18.64  -15.37    0.39   0.000   0.200   0.000    0.00
  17.900   18.45  -14.10   -0.61   0.000   0.200   0.000    0.00
  17.950   17.75  -10.93    0.68   0.000   0.200   0.000    0.00
  18.000   17.97  -10.72    0.23   0.000   0.200   0.000    0.00
  18.050   17.36  -12.20    0.86   0.000   0.200   0.000    0.00
  18.100   16.42   -8.79    0.85   0.000   0.200   0.000    0.00
  18.150   15.53   -7.21   -0.60   0.000   0.200   0.000    0.00
  18.200   16.11   -8.98   -0.81   0.000   0.200   0.000    0.00
  18.250   16.69   -2.86   -1.76   0.000   0.200   0.000    0.00
  18.300   16.48   -5.01   -1.75   0.000   0.200   0.000    0.00
  18.350   17.63   -2.09   -2.64   0.000   0.200   0.000    0.00
  18.400   17.22   -1.24   -2.23   0.000   0.200   0.000    0.00
  18.450   17.30    1.93   -1.92   0.000   0.200   0.000    0.00
  18.500   17.34   -0.90   -1.19   0.000   0.200   0.000    0.00
  18.550   17.54    3.38   -1.13   0.000   0.200   0.000    0.00
  18.600   16.55    0.26    0.50   0.000   0.200   0.000    0.00
  18.650   17.03   -4.93    0.77   0.000   0.200   0.000    0.00
  18.700   17.76   -4.71   -0.51   0.000   0.200   0.000    0.00
  18.750   18.20   -7.04    0.74   0.000   0.200   0.000    0.00
  18.800   17.23   -6.62    2.10   0.000   0.200   0.000    0.00
  18.850   16.95  -10.01    2.10   0.000   0.200   0.000    0.00
  18.900   18.00   -9.77    1.13   0.000   0.200   0.000    0.00
  18.950   18.67   -8.53    0.53   0.000   0.200   0.000    0.00
  19.000   19.05   -7.18    0.52   0.000   0.200   0.000    0.00
  19.050   18.48   -8.97   -0.01   0.000   0.200   0.000    0.00
  19.100   17.85   -8.71    0.18   0.000   0.200   0.000    0.00
  19.150   18.18   -3.99    0.03   0.000   0.200   0.000    0.00
  19.200   16.87  -10.86    1.33   0.000   0.200   0.000    0.00
  19.250   17.05   -8.45    0.99   0.000   0.200   0.000    0.00
  19.300   17.46   -7.53    0.62   0.000   0.200   0.000    0.00
  19.350   18.12   -5.93    0.60   0.000   0.200   0.000    0.00
  19.400   18.42   -5.21    1.65   0.000   0.200   0.000    0.00
  19.450   18.13   -5.53    2.42   0.000   0.200   0.000    0.00
  19.500   17.51   -4.43    1.10   0.000   0.200   0.000    0.00
  19.550   17.57   -4.51   -0.28   0.000   0.200   0.000    0.00
  19.600   17.11   -3.31   -0.15   0.000   0.200   0.000    0.00
  19.650   16.49   -1.90    0.08   0.000   0.200   0.000    0.00
  19.700   17.12   -5.62    0.93   0.000   0.200   0.000    0.00
  19.750   16.30   -5.10   -0.07   0.000   0.200   0.000    0.00
  19.800   16.81   -8.80   -0.15   0.000   0.200   0.000    0.00
  19.850   16.35   -7.41   -0.14   0.000   0.200   0.000    0.00
  19.900   16.11   -6.43    0.37   0.000   0.200   0.000    0.00
  19.950   15.87  -12.21    0.19   0.000   0.200   0.000    0.00
  20.000   15.91  -12.58    0.52   0.000   0.200   0.000    0.00
  20.050   14.39  -15.36   -0.60   0.000   0.200   0.000    0.00
  20.100   13.76  -16.45   -1.47   0.000   0.200   0.000    0.00
  20.150   14.18  -19.16   -1.09   0.000   0.200   0.000    0.00
  20.200   15.23  -16.26   -2.07   0.000   0.200   0.000    0.00
  20.250   15.53  -17.68   -1.44   0.000   0.200   0.000    0.00
  20.300   15.62  -17.81   -1.21   0.000   0.200   0.000    0.00
  20.350   16.30  -17.88   -2.09   0.000   0.200   0.000    0.00
  20.400   16.74  -16.39   -1.49   0.000   0.200   0.000    0.00
  20.450   16.57  -10.54    0.20   0.000   0.200   0.000    0.00
  20.500   16.92  -10.03   -1.83   0.000   0.200   0.000    0.00
  20.550   17.30  -10.79   -0.94   0.000   0.200   0.000    0.00
  20.600   18.73  -12.14   -1.86   0.000   0.200   0.000    0.00
  20.650   17.21  -12.50   -1.68   0.000   0.200   0.000    0.00
  20.700   16.99  -13.40   -0.29   0.000   0.200   0.000    0.00
  20.750   16.52   -8.82   -0.86   0.000   0.200   0.000    0.00
  20.800   17.29   -9.74   -1.48   0.000   0.200   0.000    0.00
  20.850   16.84  -10.01   -1.73   0.000   0.200   0.000    0.00
  20.900   17.99  -12.34   -2.28   0.000   0.200   0.000    0.00
  20.950   16.14  -10.80   -3.28   0.000   0.200   0.000    0.00
  21.000   15.56   -8.25   -2.10   0.000   0.200   0.000    0.00
  21.050   14.54   -8.90   -1.39   0.000   0.200   0.000    0.00
  21.100   15.31   -8.37   -0.69   0.000   0.200   0.000    0.00
  21.150   15.83  -10.86   -0.57   0.000   0.200   0.000    0.00
  21.200   15.26  -15.88   -1.56   0.000   0.200   0.000    0.00
  21.250   16.33  -19.28   -0.41   0.000   0.200   0.000    0.00
  21.300   16.13  -16.03   -1.16   0.000   0.200   0.000    0.00
  21.350   17.26  -13.71   -0.29   0.000   0.200   0.000    0.00
  21.400   18.00  -10.06   -0.54   0.000   0.200   0.000    0.00
  21.450   17.24   -7.51   -1.43   0.000   0.200   0.000    0.00
  21.500   17.96   -7.14   -2.45   0.000   0.200   0.000    0.00
  21.550   19.22  -10.97   -1.87   0.000   0.200   0.000    0.00
  21.600   18.70   -9.51   -1.68   0.000   0.200   0.000    0.00
  21.650   19.32   -3.34   -2.13   0.000   0.200   0.000    0.00
  21.700   18.37   -2.33   -1.94   0.000   0.200   0.000    0.00
  21.750   16.57   -2.56   -0.24   0.000   0.200   0.000    0.00
  21.800   16.59    0.05    1.02   0.000   0.200   0.000    0.00
  21.850   18.05   -1.92    1.30   0.000   0.200   0.000    0.00
  21.900   18.30   -3.74    1.42   0.000   0.200   0.000    0.00
  21.950   17.09    1.21    0.99   0.000   0.200   0.000    0.00
  22.000   17.22    7.08    0.78   0.000   0.200   0.000    0.00
  22.050   17.87    2.40    0.55   0.000   0.200   0.000    0.00
  22.100   18.10   -1.35    0.44   0.000   0.200   0.000    0.00
  22.150   18.65   -1.61    1.11   0.000   0.200   0.000    0.00
  22.200   19.58   -0.92    0.03   0.000   0.200   0.000    0.00
  22.250   20.65    4.56    0.44   0.000   0.200   0.000    0.00
  22.300   20.13    3.23    1.28   0.000   0.200   0.000    0.00
  22.350   19.52    2.69    1.27   0.000   0.200   0.000    0.00