! This hub-height wind-speed file was generated by TurbSim (v1.06.00, 21-Sep-2012) on 16-Jun-2018 at 18:34:17.
!
! The requested statistics for this data were:
!    Mean Total Wind Speed =    9.000 m/s
!    Turbulence Intensity  =   32.007%
!
!   Time  HorSpd  WndDir  VerSpd  HorShr  VerShr  LnVShr  GstSpd
!  (sec)   (m/s)   (deg)   (m/s)     (-)     (-)     (-)   (m/s)
   0.000    7.14    9.86   -2.08   0.000   0.200   0.000    0.00
   0.050    6.75    4.57   -2.39   0.000   0.200   0.000    0.00
   0.100    7.44    8.18   -2.07   0.000   0.200   0.000    0.00
   0.150    7.57    5.88   -1.51   0.000   0.200   0.000    0.00
   0.200    7.93    6.54   -1.61   0.000   0.200   0.000    0.00
   0.250    7.80    9.20   -2.37   0.000   0.200   0.000    0.00
   0.300    6.81   14.76   -1.96   0.000   0.200   0.000    0.00
   0.350    6.38    9.61   -1.69   0.000   0.200   0.000    0.00
   0.400    6.15   16.28   -0.83   0.000   0.200   0.000    0.00
   0.450    6.21   21.20   -0.35   0.000   0.200   0.000    0.00
   0.500    6.29   17.47   -0.45   0.000   0.200   0.000    0.00
   0.550    6.62   14.56   -0.70   0.000   0.200   0.000    0.00
   0.600    6.63   10.72   -1.01   0.000   0.200   0.000    0.00
   0.650    6.36    9.39   -0.67   0.000   0.200   0.000    0.00
   0.700    6.46    9.16   -1.09   0.000   0.200   0.000    0.00
   0.750    6.21   11.69   -1.29   0.000   0.200   0.000    0.00
   0.800    5.71   14.95   -0.91   0.000   0.200   0.000    0.00
   0.850    4.97   19.69   -1.25   0.000   0.200   0.000    0.00
   0.900    5.61   18.30   -1.91   0.000   0.200   0.000    0.00
   0.950    6.03   24.87   -1.19   0.000   0.200   0.000    0.00
   1.000    5.68   20.15   -1.47   0.000   0.200   0.000    0.00
   1.050    5.24   17.22   -1.61   0.000   0.200   0.000    0.00
   1.100    6.10    6.62   -2.11   0.000   0.200   0.000    0.00
   1.150    5.73    3.71   -2.71   0.000   0.200   0.000    0.00
   1.200    5.80    4.77   -2.39   0.000   0.200   0.000    0.00
   1.250    6.20    4.33   -2.23   0.000   0.200   0.000    0.00
   1.300    6.91    7.86   -2.51   0.000   0.200   0.000    0.00
   1.350    7.48    8.27   -2.68   0.000   0.200   0.000    0.00
   1.400    7.66    9.96   -2.73   0.000   0.200   0.000    0.00
   1.450    6.59    6.56   -2.89   0.000   0.200   0.000    0.00
   1.500    6.95    1.69   -2.39   0.000   0.200   0.000    0.00
   1.550    6.46    6.87   -1.55   0.000   0.200   0.000    0.00
   1.600    6.65   12.45   -0.75   0.000   0.200   0.000    0.00
   1.650    6.21    0.10   -0.55   0.000   0.200   0.000    0.00
   1.700    5.59    2.25   -0.40   0.000   0.200   0.000    0.00
   1.750    5.28   -3.93    0.40   0.000   0.200   0.000    0.00
   1.800    4.95   -8.71    0.24   0.000   0.200   0.000    0.00
   1.850    4.68    0.81    1.26   0.000   0.200   0.000    0.00
   1.900    4.41  -11.97    0.44   0.000   0.200   0.000    0.00
   1.950    4.98  -14.38   -0.30   0.000   0.200   0.000    0.00
   2.000    4.96  -15.39   -0.37   0.000   0.200   0.000    0.00
   2.050    4.64   -9.88   -0.89   0.000   0.200   0.000    0.00
   2.100    4.83   -1.10   -1.02   0.000   0.200   0.000    0.00
   2.150    4.53    9.42   -1.06   0.000   0.200   0.000    0.00
   2.200    5.09    3.24   -0.82   0.000   0.200   0.000    0.00
   2.250    5.50   -4.92   -0.15   0.000   0.200   0.000    0.00
   2.300    5.41  -10.30    0.12   0.000   0.200   0.000    0.00
   2.350    6.29  -13.08   -0.12   0.000   0.200   0.000    0.00
   2.400    6.23  -19.00   -1.12   0.000   0.200   0.000    0.00
   2.450    5.99  -25.74   -0.91   0.000   0.200   0.000    0.00
   2.500    5.54  -13.81   -0.13   0.000   0.200   0.000    0.00
   2.550    5.41  -17.24   -0.44   0.000   0.200   0.000    0.00
   2.600    5.01  -12.53    0.14   0.000   0.200   0.000    0.00
   2.650    5.58   -9.23   -0.54   0.000   0.200   0.000    0.00
   2.700    5.35  -19.01   -0.14   0.000   0.200   0.000    0.00
   2.750    5.83  -24.29    0.41   0.000   0.200   0.000    0.00
   2.800    6.66  -26.66    0.60   0.000   0.200   0.000    0.00
   2.850    6.58  -33.89    0.41   0.000   0.200   0.000    0.00
   2.900    7.02  -36.62    0.13   0.000   0.200   0.000    0.00
   2.950    6.15  -34.52    0.50   0.000   0.200   0.000    0.00
   3.000    6.07  -28.28    0.22   0.000   0.200   0.000    0.00
   3.050    6.39  -31.79    0.09   0.000   0.200   0.000    0.00
   3.100    5.67  -31.71    0.04   0.000   0.200   0.000    0.00
   3.150    5.22  -26.70    0.02   0.000   0.200   0.000    0.00
   3.200    5.33  -22.56   -0.25   0.000   0.200   0.000    0.00
   3.250    6.17  -32.38   -0.03   0.000   0.200   0.000    0.00
   3.300    6.69  -39.47    0.55   0.000   0.200   0.000    0.00
   3.350    5.90  -42.28    1.27   0.000   0.200   0.000    0.00
   3.400    6.45  -44.47    1.02   0.000   0.200   0.000    0.00
   3.450    7.63  -44.08    1.06   0.000   0.200   0.000    0.00
   3.500    6.81  -41.88    1.59   0.000   0.200   0.000    0.00
   3.550    6.17  -38.47    1.26   0.000   0.200   0.000    0.00
   3.600    6.62  -39.16    1.72   0.000   0.200   0.000    0.00
   3.650    6.53  -38.90    1.69   0.000   0.200   0.000    0.00
   3.700    5.45  -37.12    1.11   0.000   0.200   0.000    0.00
   3.750    5.87  -38.01    1.61   0.000   0.200   0.000    0.00
   3.800    4.40  -28.93    1.62   0.000   0.200   0.000    0.00
   3.850    5.25  -27.77    1.53   0.000   0.200   0.000    0.00
   3.900    5.45  -29.91    2.01   0.000   0.200   0.000    0.00
   3.950    6.08  -23.45    1.41   0.000   0.200   0.000    0.00
   4.000    6.06  -22.35    1.71   0.000   0.200   0.000    0.00
   4.050    5.43  -17.15    1.71   0.000   0.200   0.000    0.00
   4.100    5.62  -17.50    1.44   0.000   0.200   0.000    0.00
   4.150    5.57  -20.72    1.44   0.000   0.200   0.000    0.00
   4.200    5.31  -24.35    1.08   0.000   0.200   0.000    0.00
   4.250    5.54  -10.02    1.43   0.000   0.200   0.000    0.00
   4.300    6.11  -14.39    0.64   0.000   0.200   0.000    0.00
   4.350    6.24  -18.08    0.55   0.000   0.200   0.000    0.00
   4.400    6.01  -22.16    0.85   0.000   0.200   0.000    0.00
   4.450    6.15  -27.45    1.24   0.000   0.200   0.000    0.00
   4.500    5.96  -24.22    1.58   0.000   0.200   0.000    0.00
   4.550    6.35  -26.90    1.94   0.000   0.200   0.000    0.00
   4.600    6.01  -28.57    1.63   0.000   0.200   0.000    0.00
   4.650    5.98  -29.38    1.85   0.000   0.200   0.000    0.00
   4.700    6.31  -33.29    1.68   0.000   0.200   0.000    0.00
   4.750    5.65  -35.34    0.87   0.000   0.200   0.000    0.00
   4.800    5.35  -32.09    1.58   0.000   0.200   0.000    0.00
   4.850    5.35  -36.07    1.87   0.000   0.200   0.000    0.00
   4.900    4.85  -36.40    2.07   0.000   0.200   0.000    0.00
   4.950    5.36  -32.72    2.33   0.000   0.200   0.000    0.00
   5.000    6.13  -34.04    1.60   0.000   0.200   0.000    0.00
   5.050    6.95  -33.61    1.87   0.000   0.200   0.000    0.00
   5.100    7.30  -30.57    1.63   0.000   0.200   0.000    0.00
   5.150    7.25  -27.35    1.81   0.000   0.200   0.000    0.00
   5.200    6.88  -20.18    1.86   0.000   0.200   0.000    0.00
   5.250    6.96  -13.87    1.27   0.000   0.200   0.000    0.00
   5.300    8.03   -9.31    1.01   0.000   0.200   0.000    0.00
   5.350    8.42  -10.82    0.42   0.000   0.200   0.000    0.00
   5.400    8.40  -11.76    1.16   0.000   0.200   0.000    0.00
   5.450    8.60  -16.04    1.53   0.000   0.200   0.000    0.00
   5.500    9.10  -17.40    1.61   0.000   0.200   0.000    0.00
   5.550    8.60  -13.72    1.00   0.000   0.200   0.000    0.00
   5.600    8.30  -10.59    1.45   0.000   0.200   0.000    0.00
   5.650    7.78  -10.78    0.85   0.000   0.200   0.000    0.00
   5.700    8.65  -18.98    1.40   0.000   0.200   0.000    0.00
   5.750    8.33  -18.98    1.59   0.000   0.200   0.000    0.00
   5.800    7.12  -15.82    1.15   0.000   0.200   0.000    0.00
   5.850    6.68  -14.68    1.25   0.000   0.200   0.000    0.00
   5.900    6.12  -12.81    0.67   0.000   0.200   0.000    0.00
   5.950    6.32  -13.73    0.99   0.000   0.200   0.000    0.00
   6.000    6.95  -12.28    1.02   0.000   0.200   0.000    0.00
   6.050    6.55   -7.36    0.97   0.000   0.200   0.000    0.00
   6.100    7.34   -8.38    1.13   0.000   0.200   0.000    0.00
   6.150    7.36  -12.90    1.03   0.000   0.200   0.000    0.00
   6.200    7.45  -10.38    0.76   0.000   0.200   0.000    0.00
   6.250    8.14  -10.36    0.85   0.000   0.200   0.000    0.00
   6.300    8.03  -11.82    0.66   0.000   0.200   0.000    0.00
   6.350    8.74  -10.64    1.34   0.000   0.200   0.000    0.00
   6.400    9.12  -11.72    1.65   0.000   0.200   0.000    0.00
   6.450    8.73  -10.75    1.71   0.000   0.200   0.000    0.00
   6.500    8.01  -11.39    1.95   0.000   0.200   0.000    0.00
   6.550    8.12  -12.78    1.54   0.000   0.200   0.000    0.00
   6.600    8.19  -13.06    1.27   0.000   0.200   0.000    0.00
   6.650    8.04  -14.35    1.01   0.000   0.200   0.000    0.00
   6.700    8.46  -15.96    0.64   0.000   0.200   0.000    0.00
   6.750    8.76  -14.44    0.38   0.000   0.200   0.000    0.00
   6.800    8.66  -14.22   -0.42   0.000   0.200   0.000    0.00
   6.850    8.54  -10.69    0.27   0.000   0.200   0.000    0.00
   6.900    8.37  -12.37    0.23   0.000   0.200   0.000    0.00
   6.950    7.58  -13.52   -0.31   0.000   0.200   0.000    0.00
   7.000    7.45  -17.81   -0.35   0.000   0.200   0.000    0.00
   7.050    7.45  -12.25   -0.16   0.000   0.200   0.000    0.00
   7.100    7.74  -13.67   -0.43   0.000   0.200   0.000    0.00
   7.150    7.65  -14.10   -0.74   0.000   0.200   0.000    0.00
   7.200    7.97  -11.31   -0.96   0.000   0.200   0.000    0.00
   7.250    7.97  -17.43   -1.12   0.000   0.200   0.000    0.00
   7.300    8.48  -18.92   -1.05   0.000   0.200   0.000    0.00
   7.350    8.08  -18.69   -1.03   0.000   0.200   0.000    0.00
   7.400    8.09  -20.44   -1.18   0.000   0.200   0.000    0.00
   7.450    8.01  -20.74   -0.93   0.000   0.200   0.000    0.00
   7.500    7.88  -25.79    0.06   0.000   0.200   0.000    0.00
   7.550    7.81  -21.94    0.81   0.000   0.200   0.000    0.00
   7.600    7.22  -19.64    1.10   0.000   0.200   0.000    0.00
   7.650    7.52  -17.44    0.91   0.000   0.200   0.000    0.00
   7.700    6.78  -20.76    0.82   0.000   0.200   0.000    0.00
   7.750    7.25  -23.76    0.85   0.000   0.200   0.000    0.00
   7.800    7.37  -22.11    1.16   0.000   0.200   0.000    0.00
   7.850    7.62  -19.19    0.70   0.000   0.200   0.000    0.00
   7.900    8.07  -18.50    0.11   0.000   0.200   0.000    0.00
   7.950    8.30  -18.25   -0.27   0.000   0.200   0.000    0.00
   8.000    8.24  -20.11    0.06   0.000   0.200   0.000    0.00
   8.050    8.15  -24.15    0.25   0.000   0.200   0.000    0.00
   8.100    7.99  -25.48   -0.48   0.000   0.200   0.000    0.00
   8.150    7.83  -25.28    0.06   0.000   0.200   0.000    0.00
   8.200    7.45  -24.99   -0.13   0.000   0.200   0.000    0.00
   8.250    7.82  -28.13   -0.76   0.000   0.200   0.000    0.00
   8.300    8.17  -27.30   -0.61   0.000   0.200   0.000    0.00
   8.350    8.29  -31.94    0.26   0.000   0.200   0.000    0.00
   8.400    8.74  -34.57    0.21   0.000   0.200   0.000    0.00
   8.450    9.05  -30.62   -0.27   0.000   0.200   0.000    0.00
   8.500    8.71  -30.57    0.50   0.000   0.200   0.000    0.00
   8.550    8.34  -32.43    0.48   0.000   0.200   0.000    0.00
   8.600    7.98  -30.64    0.69   0.000   0.200   0.000    0.00
   8.650    8.15  -28.12    0.35   0.000   0.200   0.000    0.00
   8.700    7.95  -27.75   -0.17   0.000   0.200   0.000    0.00
   8.750    8.11  -26.63   -0.11   0.000   0.200   0.000    0.00
   8.800    7.70  -28.14    1.04   0.000   0.200   0.000    0.00
   8.850    7.94  -31.61    0.99   0.000   0.200   0.000    0.00
   8.900    8.16  -28.23    1.97   0.000   0.200   0.000    0.00
   8.950    7.98  -26.44    1.52   0.000   0.200   0.000    0.00
   9.000    7.72  -23.28    1.46   0.000   0.200   0.000    0.00
   9.050    7.51  -26.13    1.48   0.000   0.200   0.000    0.00
   9.100    7.63  -22.49    1.25   0.000   0.200   0.000    0.00
   9.150    7.83  -19.83    1.47   0.000   0.200   0.000    0.00
   9.200    7.68  -24.43    2.70   0.000   0.200   0.000    0.00
   9.250    7.38  -29.53    2.37   0.000   0.200   0.000    0.00
   9.300    8.19  -24.52    2.31   0.000   0.200   0.000    0.00
   9.350    8.15  -24.92    2.98   0.000   0.200   0.000    0.00
   9.400    8.07  -27.19    3.52   0.000   0.200   0.000    0.00
   9.450    8.44  -26.91    3.37   0.000   0.200   0.000    0.00
   9.500    7.86  -27.39    3.40   0.000   0.200   0.000    0.00
   9.550    7.91  -25.55    2.46   0.000   0.200   0.000    0.00
   9.600    8.06  -23.80    1.69   0.000   0.200   0.000    0.00
   9.650    7.66  -21.46    1.75   0.000   0.200   0.000    0.00
   9.700    7.89  -19.08    1.50   0.000   0.200   0.000    0.00
   9.750    7.27  -15.59    1.79   0.000   0.200   0.000    0.00
   9.800    6.52  -23.95    1.98   0.000   0.200   0.000    0.00
   9.850    6.07  -17.11    2.36   0.000   0.200   0.000    0.00
   9.900    6.85  -11.48    2.28   0.000   0.200   0.000    0.00
   9.950    7.30  -14.01    1.89   0.000   0.200   0.000    0.00
  10.000    7.59  -17.38    2.70   0.000   0.200   0.000    0.00
  10.050    7.74  -16.63    2.54   0.000   0.200   0.000    0.00
  10.100    7.45  -21.73    1.52   0.000   0.200   0.000    0.00
  10.150    7.14  -15.47    1.91   0.000   0.200   0.000    0.00
  10.200    7.90  -13.22    2.09   0.000   0.200   0.000    0.00
  10.250    8.25  -14.44    1.18   0.000   0.200   0.000    0.00
  10.300    7.92  -18.98    0.88   0.000   0.200   0.000    0.00
  10.350    8.68  -16.17    0.31   0.000   0.200   0.000    0.00
  10.400    8.78  -14.24   -0.04   0.000   0.200   0.000    0.00
  10.450    7.94  -19.25    0.35   0.000   0.200   0.000    0.00
  10.500    6.80  -21.57   -0.03   0.000   0.200   0.000    0.00
  10.550    7.11  -19.16   -0.86   0.000   0.200   0.000    0.00
  10.600    6.57  -17.79   -1.72   0.000   0.200   0.000    0.00
  10.650    6.77  -13.18   -1.49   0.000   0.200   0.000    0.00
  10.700    7.21  -14.10   -1.69   0.000   0.200   0.000    0.00
  10.750    7.38  -21.01   -2.48   0.000   0.200   0.000    0.00
  10.800    7.45  -19.99   -1.91   0.000   0.200   0.000    0.00
  10.850    7.86  -17.67   -1.92   0.000   0.200   0.000    0.00
  10.900    8.35  -10.74   -2.05   0.000   0.200   0.000    0.00
  10.950    7.99  -14.33   -2.33   0.000   0.200   0.000    0.00
  11.000    8.57   -7.70   -1.85   0.000   0.200   0.000    0.00
  11.050    9.52   -3.80   -1.27   0.000   0.200   0.000    0.00
  11.100    9.12   -6.14   -1.18   0.000   0.200   0.000    0.00
  11.150    9.53   -7.00   -1.36   0.000   0.200   0.000    0.00
  11.200    9.61  -10.32   -1.91   0.000   0.200   0.000    0.00
  11.250   10.54   -8.91   -1.65   0.000   0.200   0.000    0.00
  11.300   10.62   -7.18   -1.97   0.000   0.200   0.000    0.00
  11.350   10.77  -10.02   -1.90   0.000   0.200   0.000    0.00
  11.400    9.93  -11.40   -1.93   0.000   0.200   0.000    0.00
  11.450    9.54   -9.55   -1.77   0.000   0.200   0.000    0.00
  11.500    9.87   -5.02   -2.34   0.000   0.200   0.000    0.00
  11.550   10.14   -8.49   -2.90   0.000   0.200   0.000    0.00
  11.600   10.42   -8.45   -2.36   0.000   0.200   0.000    0.00
  11.650    9.79   -8.33   -1.82   0.000   0.200   0.000    0.00
  11.700   10.39   -9.22   -0.95   0.000   0.200   0.000    0.00
  11.750   10.36  -10.44   -0.75   0.000   0.200   0.000    0.00
  11.800    9.61   -6.30   -0.37   0.000   0.200   0.000    0.00
  11.850    9.84   -9.99    0.09   0.000   0.200   0.000    0.00
  11.900    9.63   -5.70   -0.02   0.000   0.200   0.000    0.00
  11.950    9.67   -8.60   -1.00   0.000   0.200   0.000    0.00
  12.000    8.98   -9.50   -0.73   0.000   0.200   0.000    0.00
  12.050    8.37   -6.89   -0.23   0.000   0.200   0.000    0.00
  12.100    8.41   -4.39    0.22   0.000   0.200   0.000    0.00
  12.150    8.67   -4.07   -0.24   0.000   0.200   0.000    0.00
  12.200    8.37   -6.03   -0.07   0.000   0.200   0.000    0.00
  12.250    8.63  -12.02   -0.32   0.000   0.200   0.000    0.00
  12.300    8.75   -8.03   -0.08   0.000   0.200   0.000    0.00
  12.350    8.59   -3.74   -0.23   0.000   0.200   0.000    0.00
  12.400    8.61   -4.15   -0.79   0.000   0.200   0.000    0.00
  12.450    8.43    0.21   -0.40   0.000   0.200   0.000    0.00
  12.500    8.72    6.84   -0.55   0.000   0.200   0.000    0.00
  12.550    8.42    1.85   -0.87   0.000   0.200   0.000    0.00
  12.600    8.15    4.37   -0.37   0.000   0.200   0.000    0.00
  12.650    7.88    5.11   -0.14   0.000   0.200   0.000    0.00
  12.700    8.13   -0.77   -0.14   0.000   0.200   0.000    0.00
  12.750    8.46   -0.35   -0.84   0.000   0.200   0.000    0.00
  12.800    8.53   -2.86   -0.16   0.000   0.200   0.000    0.00
  12.850    8.85   -2.55    0.09   0.000   0.200   0.000    0.00
  12.900    8.63    0.61    0.22   0.000   0.200   0.000    0.00
  12.950    8.55    0.93   -0.21   0.000   0.200   0.000    0.00
  13.000    8.17    1.93   -0.11   0.000   0.200   0.000    0.00
  13.050    8.43    0.10    0.02   0.000   0.200   0.000    0.00
  13.100    8.77    2.31    0.02   0.000   0.200   0.000    0.00
  13.150    8.90   -0.49    0.24   0.000   0.200   0.000    0.00
  13.200    9.39   -3.20    0.62   0.000   0.200   0.000    0.00
  13.250    9.42   -7.81    0.29   0.000   0.200   0.000    0.00
  13.300    9.40   -9.09    0.22   0.000   0.200   0.000    0.00
  13.350   10.25   -6.74   -0.34   0.000   0.200   0.000    0.00
  13.400   10.21  -11.05    0.54   0.000   0.200   0.000    0.00
  13.450    9.80   -7.88    0.41   0.000   0.200   0.000    0.00
  13.500    9.48   -1.23    0.47   0.000   0.200   0.000    0.00
  13.550    9.89   -1.65    0.94   0.000   0.200   0.000    0.00
  13.600    9.86    1.81    0.86   0.000   0.200   0.000    0.00
  13.650    9.61    0.91    0.98   0.000   0.200   0.000    0.00
  13.700   10.08    2.54    1.49   0.000   0.200   0.000    0.00
  13.750   10.40    6.70    0.92   0.000   0.200   0.000    0.00
  13.800   10.46    6.75    0.46   0.000   0.200   0.000    0.00
  13.850   10.29    6.43    0.62   0.000   0.200   0.000    0.00
  13.900    9.65    2.04    0.56   0.000   0.200   0.000    0.00
  13.950    9.87    0.94    1.51   0.000   0.200   0.000    0.00
  14.000   10.43    4.42    1.27   0.000   0.200   0.000    0.00
  14.050   10.54    7.10    0.92   0.000   0.200   0.000    0.00
  14.100   10.75    8.15    1.24   0.000   0.200   0.000    0.00
  14.150   10.46    9.81    0.66   0.000   0.200   0.000    0.00
  14.200   10.64   13.44    0.33   0.000   0.200   0.000    0.00
  14.250   10.83   16.22    0.09   0.000   0.200   0.000    0.00
  14.300   11.29   13.82    0.40   0.000   0.200   0.000    0.00
  14.350   11.03    9.16    0.12   0.000   0.200   0.000    0.00
  14.400   10.82    8.14   -0.44   0.000   0.200   0.000    0.00
  14.450   10.93    7.49   -0.74   0.000   0.200   0.000    0.00
  14.500   10.87    8.36   -1.06   0.000   0.200   0.000    0.00
  14.550   10.92    2.86    0.07   0.000   0.200   0.000    0.00
  14.600   11.01    1.91    0.55   0.000   0.200   0.000    0.00
  14.650   11.25    7.22    0.52   0.000   0.200   0.000    0.00
  14.700   12.03   10.13    0.10   0.000   0.200   0.000    0.00
  14.750   11.51   10.75   -0.24   0.000   0.200   0.000    0.00
  14.800   11.44    8.29   -1.01   0.000   0.200   0.000    0.00
  14.850   11.51    6.21   -0.81   0.000   0.200   0.000    0.00
  14.900   11.47   13.62   -0.01   0.000   0.200   0.000    0.00
  14.950   11.40   13.43    0.05   0.000   0.200   0.000    0.00
  15.000   11.67   11.95    0.49   0.000   0.200   0.000    0.00
  15.050   11.42   10.13    0.79   0.000   0.200   0.000    0.00
  15.100   11.44    6.99    0.32   0.000   0.200   0.000    0.00
  15.150   11.20    5.02    0.55   0.000   0.200   0.000    0.00
  15.200   11.49    4.71    1.09   0.000   0.200   0.000    0.00
  15.250   10.95    4.66   -0.03   0.000   0.200   0.000    0.00
  15.300   11.55    4.97    0.19   0.000   0.200   0.000    0.00
  15.350   11.25    4.96    0.56   0.000   0.200   0.000    0.00
  15.400   11.68    9.62    0.41   0.000   0.200   0.000    0.00
  15.450   11.46    5.52    0.20   0.000   0.200   0.000    0.00
  15.500   11.26    2.02   -0.27   0.000   0.200   0.000    0.00
  15.550   12.42    1.38   -0.61   0.000   0.200   0.000    0.00
  15.600   12.21    2.71   -0.68   0.000   0.200   0.000    0.00
  15.650   11.65    5.65   -1.23   0.000   0.200   0.000    0.00
  15.700   11.71    5.38   -1.70   0.000   0.200   0.000    0.00
  15.750   11.61    5.49   -1.19   0.000   0.200   0.000    0.00
  15.800   11.59   10.14   -1.15   0.000   0.200   0.000    0.00
  15.850   11.11    6.15   -1.06   0.000   0.200   0.000    0.00
  15.900   10.55    4.03   -1.41   0.000   0.200   0.000    0.00
  15.950   10.63   -0.43   -1.61   0.000   0.200   0.000    0.00
  16.000   11.20   -1.84   -1.09   0.000   0.200   0.000    0.00
  16.050   10.54    0.92   -0.64   0.000   0.200   0.000    0.00
  16.100   10.09    0.22   -0.57   0.000   0.200   0.000    0.00
  16.150    9.94   -2.74   -0.15   0.000   0.200   0.000    0.00
  16.200    9.78   -3.24    0.13   0.000   0.200   0.000    0.00
  16.250   10.44   -4.26    0.15   0.000   0.200   0.000    0.00
  16.300   11.60   -6.15    0.39   0.000   0.200   0.000    0.00
  16.350   10.93   -4.31   -0.21   0.000   0.200   0.000    0.00
  16.400   10.71   -3.11   -1.22   0.000   0.200   0.000    0.00
  16.450   11.00   -1.28   -1.79   0.000   0.200   0.000    0.00
  16.500   11.23   -2.60   -1.22   0.000   0.200   0.000    0.00
  16.550   11.30   -5.17   -1.16   0.000   0.200   0.000    0.00
  16.600   11.50   -4.36   -0.57   0.000   0.200   0.000    0.00
  16.650   11.51   -4.30   -0.34   0.000   0.200   0.000    0.00
  16.700   11.97   -2.32   -0.25   0.000   0.200   0.000    0.00
  16.750   12.24   -5.46   -0.56   0.000   0.200   0.000    0.00
  16.800   12.53   -7.16   -0.16   0.000   0.200   0.000    0.00
  16.850   12.52   -4.92    0.14   0.000   0.200   0.000    0.00
  16.900   12.89   -3.56    0.44   0.000   0.200   0.000    0.00
  16.950   12.77   -5.39    0.65   0.000   0.200   0.000    0.00
  17.000   11.80   -8.82    0.01   0.000   0.200   0.000    0.00
  17.050   11.38   -8.75   -0.35   0.000   0.200   0.000    0.00
  17.100   11.36   -4.23    0.13   0.000   0.200   0.000    0.00
  17.150   11.44   -7.66   -0.38   0.000   0.200   0.000    0.00
  17.200   10.60   -5.88   -0.80   0.000   0.200   0.000    0.00
  17.250   10.67   -3.01   -0.52   0.000   0.200   0.000    0.00
  17.300   11.12    0.15   -0.85   0.000   0.200   0.000    0.00
  17.350   11.03   -4.99   -0.54   0.000   0.200   0.000    0.00
  17.400   11.39   -4.97    0.16   0.000   0.200   0.000    0.00
  17.450   11.16   -2.18   -0.40   0.000   0.200   0.000    0.00
  17.500   11.64    0.84   -0.35   0.000   0.200   0.000    0.00
  17.550   11.95   -0.89    0.06   0.000   0.200   0.000    0.00
  17.600   11.93    0.30   -0.02   0.000   0.200   0.000    0.00
  17.650   11.78   -1.70    0.53   0.000   0.200   0.000    0.00
  17.700   11.58   -4.68    0.24   0.000   0.200   0.000    0.00
  17.750   11.00   -1.14   -0.35   0.000   0.200   0.000    0.00
  17.800   11.31    0.06   -1.08   0.000   0.200   0.000    0.00
  17.850   10.86   -2.87   -0.33   0.000   0.200   0.000    0.00
  17.900   10.41   -3.80   -0.16   0.000   0.200   0.000    0.00
  17.950   10.48   -4.33   -0.45   0.000   0.200   0.000    0.00
  18.000   10.45   -2.57   -0.25   0.000   0.200   0.000    0.00
  18.050   10.56   -2.71   -0.28   0.000   0.200   0.000    0.00
  18.100   10.14    1.20   -0.56   0.000   0.200   0.000    0.00
  18.150    9.76    3.18   -1.00   0.000   0.200   0.000    0.00
  18.200    9.80    4.09   -0.37   0.000   0.200   0.000    0.00
  18.250   10.36    0.79   -0.56   0.000   0.200   0.000    0.00
  18.300   10.29   -0.76   -0.78   0.000   0.200   0.000    0.00
  18.350    9.85   -2.16   -1.19   0.000   0.200   0.000    0.00
  18.400   10.89   -2.08   -1.32   0.000   0.200   0.000    0.00
  18.450   11.00   -3.14   -1.74   0.000   0.200   0.000    0.00
  18.500   10.83   -3.83   -2.00   0.000   0.200   0.000    0.00
  18.550   10.75   -7.23   -1.55   0.000   0.200   0.000    0.00
  18.600   10.47   -7.52   -1.31   0.000   0.200   0.000    0.00
  18.650   11.77   -4.66   -1.79   0.000   0.200   0.000    0.00
  18.700   11.88   -6.13   -1.42   0.000   0.200   0.000    0.00
  18.750   11.48   -6.30   -1.46   0.000   0.200   0.000    0.00
  18.800   11.94   -5.38   -0.64   0.000   0.200   0.000    0.00
  18.850   12.47   -3.15   -0.71   0.000   0.200   0.000    0.00
  18.900   12.08   -3.02   -1.04   0.000   0.200   0.000    0.00
  18.950   12.06   -4.94   -1.17   0.000   0.200   0.000    0.00
  19.000   11.85   -4.43   -1.21   0.000   0.200   0.000    0.00
  19.050   12.67   -3.32   -1.13   0.000   0.200   0.000    0.00
  19.100   13.13   -4.62   -1.71   0.000   0.200   0.000    0.00
  19.150   12.79   -5.42   -0.68   0.000   0.200   0.000    0.00
  19.200   12.59   -7.53   -1.13   0.000   0.200   0.000    0.00
  19.250   12.67  -10.14   -1.08   0.000   0.200   0.000    0.00
  19.300   12.47   -6.80   -1.36   0.000   0.200   0.000    0.00
  19.350   12.52   -6.26   -1.01   0.000   0.200   0.000    0.00
  19.400   12.03   -6.25   -1.33   0.000   0.200   0.000    0.00
  19.450   12.45   -6.15   -0.60   0.000   0.200   0.000    0.00
  19.500   12.25   -7.95   -0.45   0.000   0.200   0.000    0.00
  19.550   12.40  -10.72   -1.26   0.000   0.200   0.000    0.00
  19.600   12.10  -12.89   -1.18   0.000   0.200   0.000    0.00
  19.650   11.85  -11.90   -1.50   0.000   0.200   0.000    0.00
  19.700   12.10  -10.72   -1.41   0.000   0.200   0.000    0.00
  19.750   12.44   -9.43   -2.05   0.000   0.200   0.000    0.00
  19.800   12.61  -11.82   -1.38   0.000   0.200   0.000    0.00
  19.850   12.57  -14.19   -0.45   0.000   0.200   0.000    0.00
  19.900   12.48  -12.47   -0.76   0.000   0.200   0.000    0.00
  19.950   12.81  -14.93   -0.66   0.000   0.200   0.000    0.00
  20.000   11.44  -13.51   -0.83   0.000   0.200   0.000    0.00
  20.050   11.28  -12.25   -2.28   0.000   0.200   0.000    0.00
  20.100   11.22  -12.05   -1.59   0.000   0.200   0.000    0.00
  20.150   11.98  -15.72   -1.68   0.000   0.200   0.000    0.00
  20.200   12.16  -14.44   -1.78   0.000   0.200   0.000    0.00
  20.250   12.19  -13.56   -1.63   0.000   0.200   0.000    0.00
  20.300   12.01  -13.18   -1.84   0.000   0.200   0.000    0.00
  20.350   12.17  -12.26   -2.34   0.000   0.200   0.000    0.00
  20.400   12.64  -12.47   -2.36   0.000   0.200   0.000    0.00
  20.450   12.89   -9.68   -2.07   0.000   0.200   0.000    0.00
  20.500   13.49   -9.90   -1.95   0.000   0.200   0.000    0.00
  20.550   13.31  -11.83   -1.72   0.000   0.200   0.000    0.00
  20.600   13.63  -14.87   -1.28   0.000   0.200   0.000    0.00
  20.650   13.79  -18.88   -1.60   0.000   0.200   0.000    0.00
  20.700   13.03  -18.95   -0.88   0.000   0.200   0.000    0.00
  20.750   12.22  -18.05   -0.10   0.000   0.200   0.000    0.00
  20.800   11.96  -17.30   -0.87   0.000   0.200   0.000    0.00
  20.850   11.96  -16.78   -1.48   0.000   0.200   0.000    0.00
  20.900   12.36  -12.41   -2.02   0.000   0.200   0.000    0.00
  20.950   12.26  -10.22   -1.64   0.000   0.200   0.000    0.00
  21.000   11.99   -7.80   -1.49   0.000   0.200   0.000    0.00
  21.050   12.29   -4.50   -1.19   0.000   0.200   0.000    0.00
  21.100   13.14   -2.67   -0.67   0.000   0.200   0.000    0.00
  21.150   12.54   -1.55   -1.16   0.000   0.200   0.000    0.00
  21.200   11.96   -4.87   -1.20   0.000   0.200   0.000    0.00
  21.250   11.63   -4.53   -0.70   0.000   0.200   0.000    0.00
  21.300   10.47   -3.43   -1.54   0.000   0.200   0.000    0.00
  21.350   10.20   -1.66   -1.24   0.000   0.200   0.000    0.00
  21.400   11.00   -1.68   -0.69   0.000   0.200   0.000    0.00
  21.450   10.50   -1.17   -0.83   0.000   0.200   0.000    0.00
  21.500   10.02   -0.94   -0.39   0.000   0.200   0.000    0.00
  21.550   10.58   -3.97   -0.24   0.000   0.200   0.000    0.00
  21.600   10.28   -6.20   -1.00   0.000   0.200   0.000    0.00
  21.650   10.38   -7.72   -0.62   0.000   0.200   0.000    0.00
  21.700   10.97   -7.65   -0.41   0.000   0.200   0.000    0.00
  21.750   10.99   -6.75   -0.23   0.000   0.200   0.000    0.00
  21.800   10.35  -10.51   -0.37   0.000   0.200   0.000    0.00
  21.850   11.02  -11.74   -0.67   0.000   0.200   0.000    0.00
  21.900   11.52   -8.69   -0.34   0.000   0.200   0.000    0.00
  21.950   11.67   -6.85   -1.09   0.000   0.200   0.000    0.00
  22.000   11.54   -3.79   -1.57   0.000   0.200   0.000    0.00
  22.050   11.55   -5.92   -2.11   0.000   0.200   0.000    0.00
  22.100   11.36   -5.53   -1.48   0.000   0.200   0.000    0.00
  22.150   11.97   -1.20   -0.95   0.000   0.200   0.000    0.00
  22.200   12.08   -1.56   -0.97   0.000   0.200   0.000    0.00
  22.250   12.40    0.05   -0.68   0.000   0.200   0.000    0.00
  22.300   12.49   -0.45   -0.98   0.000   0.200   0.000    0.00
  22.350   12.15   -1.67   -1.38   0.000   0.200   0.000    0.00