! This hub-height wind-speed file was generated by TurbSim (v1.06.00, 21-Sep-2012) on 16-Jun-2018 at 18:35:01.
!
! The requested statistics for this data were:
!    Mean Total Wind Speed =   19.000 m/s
!    Turbulence Intensity  =   19.405%
!
!   Time  HorSpd  WndDir  VerSpd  HorShr  VerShr  LnVShr  GstSpd
!  (sec)   (m/s)   (deg)   (m/s)     (-)     (-)     (-)   (m/s)
   0.000   22.67   22.32   -0.58   0.000   0.200   0.000    0.00
   0.050   23.71   22.88   -0.91   0.000   0.200   0.000    0.00
   0.100   22.67   17.36   -0.93   0.000   0.200   0.000    0.00
   0.150   23.06   17.99   -0.48   0.000   0.200   0.000    0.00
   0.200   24.38   19.45    0.19   0.000   0.200   0.000    0.00
   0.250   24.60   15.35   -0.22   0.000   0.200   0.000    0.00
   0.300   24.34   14.65   -0.29   0.000   0.200   0.000    0.00
   0.350   24.92   11.69    0.25   0.000   0.200   0.000    0.00
   0.400   26.62   12.90    0.53   0.000   0.200   0.000    0.00
   0.450   26.34   11.08    0.84   0.000   0.200   0.000    0.00
   0.500   25.86    8.61    1.80   0.000   0.200   0.000    0.00
   0.550   25.09   12.51    2.18   0.000   0.200   0.000    0.00
   0.600   24.98   12.50    1.93   0.000   0.200   0.000    0.00
   0.650   24.70   12.33    0.36   0.000   0.200   0.000    0.00
   0.700   25.57   14.91   -0.91   0.000   0.200   0.000    0.00
   0.750   26.75   17.06   -0.57   0.000   0.200   0.000    0.00
   0.800   27.11   15.79   -2.27   0.000   0.200   0.000    0.00
   0.850   26.10   17.02   -2.92   0.000   0.200   0.000    0.00
   0.900   24.16   13.80   -3.80   0.000   0.200   0.000    0.00
   0.950   22.85   14.56   -2.60   0.000   0.200   0.000    0.00
   1.000   24.08   13.27   -1.39   0.000   0.200   0.000    0.00
   1.050   23.69   12.89   -2.36   0.000   0.200   0.000    0.00
   1.100   23.17   14.37   -2.45   0.000   0.200   0.000    0.00
   1.150   23.39   12.19   -3.03   0.000   0.200   0.000    0.00
   1.200   23.62   12.24   -2.67   0.000   0.200   0.000    0.00
   1.250   23.53   11.08   -3.80   0.000   0.200   0.000    0.00
   1.300   23.79   12.03   -3.11   0.000   0.200   0.000    0.00
   1.350   22.96   12.24   -2.34   0.000   0.200   0.000    0.00
   1.400   22.91   12.13   -1.46   0.000   0.200   0.000    0.00
   1.450   23.86   11.95   -2.05   0.000   0.200   0.000    0.00
   1.500   23.68   10.76   -2.14   0.000   0.200   0.000    0.00
   1.550   24.39   13.68   -1.99   0.000   0.200   0.000    0.00
   1.600   24.09   12.49   -1.91   0.000   0.200   0.000    0.00
   1.650   23.39   14.78   -3.52   0.000   0.200   0.000    0.00
   1.700   23.26   16.70   -2.67   0.000   0.200   0.000    0.00
   1.750   22.85   16.63   -2.60   0.000   0.200   0.000    0.00
   1.800   23.08   15.97   -2.07   0.000   0.200   0.000    0.00
   1.850   23.04   12.31   -2.47   0.000   0.200   0.000    0.00
   1.900   22.19   10.01   -3.45   0.000   0.200   0.000    0.00
   1.950   22.64   11.09   -2.44   0.000   0.200   0.000    0.00
   2.000   22.38   11.18   -1.87   0.000   0.200   0.000    0.00
   2.050   21.89   12.09   -0.74   0.000   0.200   0.000    0.00
   2.100   21.00   11.01    0.17   0.000   0.200   0.000    0.00
   2.150   21.41   12.83    1.10   0.000   0.200   0.000    0.00
   2.200   20.11   10.59    1.81   0.000   0.200   0.000    0.00
   2.250   20.52   10.93    3.00   0.000   0.200   0.000    0.00
   2.300   20.75   10.55    1.52   0.000   0.200   0.000    0.00
   2.350   20.47   11.38    1.95   0.000   0.200   0.000    0.00
   2.400   21.97    9.81    2.36   0.000   0.200   0.000    0.00
   2.450   21.80   11.83    2.70   0.000   0.200   0.000    0.00
   2.500   21.24   10.26    2.18   0.000   0.200   0.000    0.00
   2.550   21.14   10.19    1.06   0.000   0.200   0.000    0.00
   2.600   20.80    7.91    1.71   0.000   0.200   0.000    0.00
   2.650   20.77    7.12    0.62   0.000   0.200   0.000    0.00
   2.700   21.77    7.49    0.01   0.000   0.200   0.000    0.00
   2.750   21.16    7.80    1.39   0.000   0.200   0.000    0.00
   2.800   19.06    5.31    0.19   0.000   0.200   0.000    0.00
   2.850   19.37    1.23   -0.45   0.000   0.200   0.000    0.00
   2.900   19.35    0.88   -0.64   0.000   0.200   0.000    0.00
   2.950   20.80   -0.56   -0.03   0.000   0.200   0.000    0.00
   3.000   21.66   -2.10    0.81   0.000   0.200   0.000    0.00
   3.050   21.46   -3.05    1.11   0.000   0.200   0.000    0.00
   3.100   21.63   -3.36    2.65   0.000   0.200   0.000    0.00
   3.150   22.10   -2.52    1.77   0.000   0.200   0.000    0.00
   3.200   21.86   -1.95    1.38   0.000   0.200   0.000    0.00
   3.250   20.46   -5.73    2.69   0.000   0.200   0.000    0.00
   3.300   19.88   -5.57    4.01   0.000   0.200   0.000    0.00
   3.350   19.52   -4.58    3.17   0.000   0.200   0.000    0.00
   3.400   19.34   -3.20    2.33   0.000   0.200   0.000    0.00
   3.450   19.66   -4.07    1.98   0.000   0.200   0.000    0.00
   3.500   18.81   -1.52    0.92   0.000   0.200   0.000    0.00
   3.550   18.68   -4.59    1.81   0.000   0.200   0.000    0.00
   3.600   18.29   -3.04    0.62   0.000   0.200   0.000    0.00
   3.650   19.55   -2.19    1.15   0.000   0.200   0.000    0.00
   3.700   19.25   -3.18    1.77   0.000   0.200   0.000    0.00
   3.750   19.32   -4.37    2.18   0.000   0.200   0.000    0.00
   3.800   21.15   -4.31    1.58   0.000   0.200   0.000    0.00
   3.850   21.72   -1.72    0.66   0.000   0.200   0.000    0.00
   3.900   21.68   -1.06   -0.85   0.000   0.200   0.000    0.00
   3.950   21.34   -3.14   -1.55   0.000   0.200   0.000    0.00
   4.000   20.98   -2.46   -0.58   0.000   0.200   0.000    0.00
   4.050   20.61   -0.08   -0.92   0.000   0.200   0.000    0.00
   4.100   19.98   -3.81   -2.58   0.000   0.200   0.000    0.00
   4.150   19.79   -3.11   -2.15   0.000   0.200   0.000    0.00
   4.200   19.30   -0.39   -2.51   0.000   0.200   0.000    0.00
   4.250   18.64    0.16   -3.29   0.000   0.200   0.000    0.00
   4.300   18.91   -1.62   -1.76   0.000   0.200   0.000    0.00
   4.350   18.36   -5.07   -0.44   0.000   0.200   0.000    0.00
   4.400   19.60   -8.22   -0.39   0.000   0.200   0.000    0.00
   4.450   19.76   -8.27   -0.10   0.000   0.200   0.000    0.00
   4.500   18.33   -6.55   -0.40   0.000   0.200   0.000    0.00
   4.550   18.33   -2.74    1.06   0.000   0.200   0.000    0.00
   4.600   18.32   -2.13    0.42   0.000   0.200   0.000    0.00
   4.650   18.38   -2.02    0.41   0.000   0.200   0.000    0.00
   4.700   19.15   -3.10    0.07   0.000   0.200   0.000    0.00
   4.750   18.74   -2.20   -0.64   0.000   0.200   0.000    0.00
   4.800   18.32   -1.39    0.16   0.000   0.200   0.000    0.00
   4.850   18.75   -0.07   -0.55   0.000   0.200   0.000    0.00
   4.900   19.36   -0.17   -0.91   0.000   0.200   0.000    0.00
   4.950   20.25    3.57   -0.48   0.000   0.200   0.000    0.00
   5.000   19.46    3.03   -1.34   0.000   0.200   0.000    0.00
   5.050   19.69    7.49   -1.37   0.000   0.200   0.000    0.00
   5.100   19.71    6.82   -3.14   0.000   0.200   0.000    0.00
   5.150   20.43    2.28   -3.14   0.000   0.200   0.000    0.00
   5.200   20.11    1.98   -3.42   0.000   0.200   0.000    0.00
   5.250   20.37    5.42   -3.06   0.000   0.200   0.000    0.00
   5.300   20.62    5.02   -2.17   0.000   0.200   0.000    0.00
   5.350   21.29    3.29   -1.69   0.000   0.200   0.000    0.00
   5.400   20.52    3.78   -1.21   0.000   0.200   0.000    0.00
   5.450   20.54    3.76   -1.79   0.000   0.200   0.000    0.00
   5.500   20.59    2.39   -1.83   0.000   0.200   0.000    0.00
   5.550   19.28    7.59   -3.12   0.000   0.200   0.000    0.00
   5.600   18.47    9.80   -3.25   0.000   0.200   0.000    0.00
   5.650   18.51   10.07   -3.22   0.000   0.200   0.000    0.00
   5.700   18.70   10.28   -1.22   0.000   0.200   0.000    0.00
   5.750   18.33   12.47   -0.10   0.000   0.200   0.000    0.00
   5.800   18.49   12.62   -0.94   0.000   0.200   0.000    0.00
   5.850   18.86   15.51   -0.55   0.000   0.200   0.000    0.00
   5.900   19.44   18.64   -0.49   0.000   0.200   0.000    0.00
   5.950   19.57   18.79   -0.40   0.000   0.200   0.000    0.00
   6.000   19.39   21.10    0.39   0.000   0.200   0.000    0.00
   6.050   20.23   23.71   -0.32   0.000   0.200   0.000    0.00
   6.100   19.62   21.49   -0.63   0.000   0.200   0.000    0.00
   6.150   19.60   16.89   -0.27   0.000   0.200   0.000    0.00
   6.200   19.17   14.31   -0.72   0.000   0.200   0.000    0.00
   6.250   18.97   12.59   -0.72   0.000   0.200   0.000    0.00
   6.300   18.47   14.79   -0.08   0.000   0.200   0.000    0.00
   6.350   18.19   17.05   -0.55   0.000   0.200   0.000    0.00
   6.400   18.78   17.59   -0.30   0.000   0.200   0.000    0.00
   6.450   18.70   14.61   -0.56   0.000   0.200   0.000    0.00
   6.500   19.78   14.70   -0.90   0.000   0.200   0.000    0.00
   6.550   18.47   12.59   -1.71   0.000   0.200   0.000    0.00
   6.600   19.64   12.57   -1.10   0.000   0.200   0.000    0.00
   6.650   19.72   11.07   -1.15   0.000   0.200   0.000    0.00
   6.700   18.82   10.11   -2.22   0.000   0.200   0.000    0.00
   6.750   18.45   13.79   -0.54   0.000   0.200   0.000    0.00
   6.800   18.19    9.53   -0.58   0.000   0.200   0.000    0.00
   6.850   18.73   10.52   -0.45   0.000   0.200   0.000    0.00
   6.900   19.37   12.03   -0.20   0.000   0.200   0.000    0.00
   6.950   19.36   15.09   -0.39   0.000   0.200   0.000    0.00
   7.000   19.85   17.09   -1.28   0.000   0.200   0.000    0.00
   7.050   19.97   18.38   -0.36   0.000   0.200   0.000    0.00
   7.100   20.53   18.14   -0.19   0.000   0.200   0.000    0.00
   7.150   20.63   17.64    0.66   0.000   0.200   0.000    0.00
   7.200   20.97   16.94    0.93   0.000   0.200   0.000    0.00
   7.250   20.71   16.38    0.47   0.000   0.200   0.000    0.00
   7.300   20.90   17.43   -0.19   0.000   0.200   0.000    0.00
   7.350   20.82   14.20    0.15   0.000   0.200   0.000    0.00
   7.400   19.33   17.22    0.05   0.000   0.200   0.000    0.00
   7.450   19.73   17.60   -1.37   0.000   0.200   0.000    0.00
   7.500   20.43   17.88   -0.57   0.000   0.200   0.000    0.00
   7.550   20.55   22.58   -0.42   0.000   0.200   0.000    0.00
   7.600   20.64   23.23   -1.62   0.000   0.200   0.000    0.00
   7.650   21.01   22.16   -0.89   0.000   0.200   0.000    0.00
   7.700   21.50   21.83   -0.68   0.000   0.200   0.000    0.00
   7.750   20.44   22.93   -0.51   0.000   0.200   0.000    0.00
   7.800   20.97   23.79   -0.51   0.000   0.200   0.000    0.00
   7.850   20.34   22.28   -2.35   0.000   0.200   0.000    0.00
   7.900   20.34   21.76   -2.49   0.000   0.200   0.000    0.00
   7.950   19.99   21.73   -1.75   0.000   0.200   0.000    0.00
   8.000   19.30   19.33   -1.89   0.000   0.200   0.000    0.00
   8.050   18.69   17.49   -2.03   0.000   0.200   0.000    0.00
   8.100   19.48   17.50   -2.29   0.000   0.200   0.000    0.00
   8.150   19.66   17.03   -1.72   0.000   0.200   0.000    0.00
   8.200   19.27   15.15   -1.47   0.000   0.200   0.000    0.00
   8.250   19.26   12.59   -1.37   0.000   0.200   0.000    0.00
   8.300   19.60   13.76   -1.46   0.000   0.200   0.000    0.00
   8.350   19.54   14.07   -1.79   0.000   0.200   0.000    0.00
   8.400   19.89   15.10   -2.17   0.000   0.200   0.000    0.00
   8.450   19.56   11.15   -3.25   0.000   0.200   0.000    0.00
   8.500   20.51   12.28   -2.62   0.000   0.200   0.000    0.00
   8.550   20.56   10.54   -2.09   0.000   0.200   0.000    0.00
   8.600   20.80    9.65    0.34   0.000   0.200   0.000    0.00
   8.650   22.25    8.85    0.91   0.000   0.200   0.000    0.00
   8.700   22.68    5.92    1.78   0.000   0.200   0.000    0.00
   8.750   22.89    6.50    1.97   0.000   0.200   0.000    0.00
   8.800   22.64   10.75    1.02   0.000   0.200   0.000    0.00
   8.850   22.64   10.87   -0.01   0.000   0.200   0.000    0.00
   8.900   23.36   14.11   -0.53   0.000   0.200   0.000    0.00
   8.950   23.28   13.54   -0.61   0.000   0.200   0.000    0.00
   9.000   23.26   11.98    0.55   0.000   0.200   0.000    0.00
   9.050   23.29   10.79   -0.23   0.000   0.200   0.000    0.00
   9.100   23.69    8.75   -0.50   0.000   0.200   0.000    0.00
   9.150   23.56    8.32    0.10   0.000   0.200   0.000    0.00
   9.200   22.98    7.50   -0.03   0.000   0.200   0.000    0.00
   9.250   22.50   10.21   -0.65   0.000   0.200   0.000    0.00
   9.300   22.04    7.32   -1.10   0.000   0.200   0.000    0.00
   9.350   21.85    4.47   -0.15   0.000   0.200   0.000    0.00
   9.400   21.82    1.93    0.60   0.000   0.200   0.000    0.00
   9.450   21.39    0.52   -0.16   0.000   0.200   0.000    0.00
   9.500   22.18    3.67   -0.36   0.000   0.200   0.000    0.00
   9.550   22.37    7.23   -0.60   0.000   0.200   0.000    0.00
   9.600   22.49    7.27   -1.66   0.000   0.200   0.000    0.00
   9.650   22.65    5.97   -0.93   0.000   0.200   0.000    0.00
   9.700   23.07    2.94   -0.89   0.000   0.200   0.000    0.00
   9.750   21.40    4.07   -1.93   0.000   0.200   0.000    0.00
   9.800   21.85    6.52   -1.50   0.000   0.200   0.000    0.00
   9.850   20.72    7.15   -1.36   0.000   0.200   0.000    0.00
   9.900   20.04    2.24   -1.93   0.000   0.200   0.000    0.00
   9.950   20.50    3.27   -2.42   0.000   0.200   0.000    0.00
  10.000   20.48    4.61   -1.34   0.000   0.200   0.000    0.00
  10.050   20.07    3.29   -0.22   0.000   0.200   0.000    0.00
  10.100   20.02    2.36   -1.30   0.000   0.200   0.000    0.00
  10.150   19.26    4.29   -1.79   0.000   0.200   0.000    0.00
  10.200   19.71    4.87   -2.86   0.000   0.200   0.000    0.00
  10.250   19.58    3.50   -2.15   0.000   0.200   0.000    0.00
  10.300   19.15    4.82   -1.01   0.000   0.200   0.000    0.00
  10.350   17.98    7.02   -0.94   0.000   0.200   0.000    0.00
  10.400   18.26    9.68   -0.41   0.000   0.200   0.000    0.00
  10.450   19.16    7.72   -1.31   0.000   0.200   0.000    0.00
  10.500   20.53   10.47   -1.58   0.000   0.200   0.000    0.00
  10.550   20.50    9.25   -3.18   0.000   0.200   0.000    0.00
  10.600   19.44    7.58   -1.36   0.000   0.200   0.000    0.00
  10.650   18.90    4.47    0.93   0.000   0.200   0.000    0.00
  10.700   19.17    3.85    0.96   0.000   0.200   0.000    0.00
  10.750   19.25    6.99    1.62   0.000   0.200   0.000    0.00
  10.800   18.83    5.68    0.92   0.000   0.200   0.000    0.00
  10.850   20.15    3.38    0.26   0.000   0.200   0.000    0.00
  10.900   20.71    5.21    0.49   0.000   0.200   0.000    0.00
  10.950   20.11    6.84    0.44   0.000   0.200   0.000    0.00
  11.000   19.03    5.63   -0.20   0.000   0.200   0.000    0.00
  11.050   18.62    6.55    0.23   0.000   0.200   0.000    0.00
  11.100   17.68    6.79    0.58   0.000   0.200   0.000    0.00
  11.150   18.05    6.92   -0.46   0.000   0.200   0.000    0.00
  11.200   18.16    6.47    0.24   0.000   0.200   0.000    0.00
  11.250   18.18    3.82    1.41   0.000   0.200   0.000    0.00
  11.300   18.51    1.95    2.01   0.000   0.200   0.000    0.00
  11.350   17.97    4.66    2.13   0.000   0.200   0.000    0.00
  11.400   16.93    4.91    3.05   0.000   0.200   0.000    0.00
  11.450   17.01    5.08    2.22   0.000   0.200   0.000    0.00
  11.500   17.75    4.78    2.02   0.000   0.200   0.000    0.00
  11.550   17.95    2.54    1.42   0.000   0.200   0.000    0.00
  11.600   18.29    3.64    1.65   0.000   0.200   0.000    0.00
  11.650   18.74    5.41    2.62   0.000   0.200   0.000    0.00
  11.700   18.66    6.81    1.21   0.000   0.200   0.000    0.00
  11.750   17.81    5.60    0.93   0.000   0.200   0.000    0.00
  11.800   17.54    6.27    0.34   0.000   0.200   0.000    0.00
  11.850   16.50    8.83   -0.28   0.000   0.200   0.000    0.00
  11.900   15.82    5.99    0.19   0.000   0.200   0.000    0.00
  11.950   15.91    7.24   -1.16   0.000   0.200   0.000    0.00
  12.000   16.34    6.78   -0.83   0.000   0.200   0.000    0.00
  12.050   16.22    4.95   -1.68   0.000   0.200   0.000    0.00
  12.100   14.50    3.37   -1.15   0.000   0.200   0.000    0.00
  12.150   15.22    1.66   -1.61   0.000   0.200   0.000    0.00
  12.200   15.35    1.78   -0.51   0.000   0.200   0.000    0.00
  12.250   15.31   -1.11   -1.07   0.000   0.200   0.000    0.00
  12.300   14.88    2.84   -1.19   0.000   0.200   0.000    0.00
  12.350   13.89    4.21   -0.82   0.000   0.200   0.000    0.00
  12.400   14.99    8.13    0.41   0.000   0.200   0.000    0.00
  12.450   14.96    4.46   -1.53   0.000   0.200   0.000    0.00
  12.500   14.18    4.78   -2.63   0.000   0.200   0.000    0.00
  12.550   13.36    6.88   -1.50   0.000   0.200   0.000    0.00
  12.600   14.23    5.05   -1.75   0.000   0.200   0.000    0.00
  12.650   14.67    3.36   -1.41   0.000   0.200   0.000    0.00
  12.700   16.17    2.53   -0.50   0.000   0.200   0.000    0.00
  12.750   16.48    5.02   -0.77   0.000   0.200   0.000    0.00
  12.800   15.84   10.35   -0.45   0.000   0.200   0.000    0.00
  12.850   16.19    9.07   -1.05   0.000   0.200   0.000    0.00
  12.900   15.26   11.00   -0.86   0.000   0.200   0.000    0.00
  12.950   14.53   15.82   -0.98   0.000   0.200   0.000    0.00
  13.000   15.14   14.67   -0.30   0.000   0.200   0.000    0.00
  13.050   14.32   12.29   -0.72   0.000   0.200   0.000    0.00
  13.100   15.68   12.00    0.06   0.000   0.200   0.000    0.00
  13.150   15.82    8.28    0.82   0.000   0.200   0.000    0.00
  13.200   16.78    7.06    0.55   0.000   0.200   0.000    0.00
  13.250   16.89    3.61    0.82   0.000   0.200   0.000    0.00
  13.300   17.05    1.43    1.00   0.000   0.200   0.000    0.00
  13.350   17.18    1.53    1.68   0.000   0.200   0.000    0.00
  13.400   16.26    0.03    0.66   0.000   0.200   0.000    0.00
  13.450   16.18    3.22    0.74   0.000   0.200   0.000    0.00
  13.500   16.68    9.22   -0.54   0.000   0.200   0.000    0.00
  13.550   17.22    8.51   -0.20   0.000   0.200   0.000    0.00
  13.600   16.99   10.63    0.26   0.000   0.200   0.000    0.00
  13.650   18.02    8.82    0.29   0.000   0.200   0.000    0.00
  13.700   18.78   12.18   -0.29   0.000   0.200   0.000    0.00
  13.750   18.02    7.86   -0.59   0.000   0.200   0.000    0.00
  13.800   17.94    9.17   -0.09   0.000   0.200   0.000    0.00
  13.850   17.13    9.72   -0.13   0.000   0.200   0.000    0.00
  13.900   17.28    1.88    0.00   0.000   0.200   0.000    0.00
  13.950   17.20    1.35    0.70   0.000   0.200   0.000    0.00
  14.000   16.06    0.08    0.69   0.000   0.200   0.000    0.00
  14.050   16.62   -0.80    0.74   0.000   0.200   0.000    0.00
  14.100   16.45   -3.27    1.33   0.000   0.200   0.000    0.00
  14.150   16.51   -3.35   -0.11   0.000   0.200   0.000    0.00
  14.200   16.42   -2.48    0.74   0.000   0.200   0.000    0.00
  14.250   16.27   -4.81    1.42   0.000   0.200   0.000    0.00
  14.300   16.84    1.09    1.74   0.000   0.200   0.000    0.00
  14.350   16.39    3.67    1.84   0.000   0.200   0.000    0.00
  14.400   16.52    2.02    2.37   0.000   0.200   0.000    0.00
  14.450   15.66    2.92    1.39   0.000   0.200   0.000    0.00
  14.500   15.74    7.51    0.43   0.000   0.200   0.000    0.00
  14.550   14.71   10.95    0.61   0.000   0.200   0.000    0.00
  14.600   14.42    7.85    1.08   0.000   0.200   0.000    0.00
  14.650   14.50    7.44    0.47   0.000   0.200   0.000    0.00
  14.700   15.33    8.88   -0.27   0.000   0.200   0.000    0.00
  14.750   16.21    4.32    0.96   0.000   0.200   0.000    0.00
  14.800   16.48    4.77    1.49   0.000   0.200   0.000    0.00
  14.850   16.60    9.86    1.61   0.000   0.200   0.000    0.00
  14.900   16.63    6.83    0.54   0.000   0.200   0.000    0.00
  14.950   17.14    7.27    0.57   0.000   0.200   0.000    0.00
  15.000   17.97   10.78    0.16   0.000   0.200   0.000    0.00
  15.050   16.95   12.27    0.20   0.000   0.200   0.000    0.00
  15.100   16.40   20.87    1.27   0.000   0.200   0.000    0.00
  15.150   15.90   17.80    0.52   0.000   0.200   0.000    0.00
  15.200   15.31   17.15    0.42   0.000   0.200   0.000    0.00
  15.250   15.52    9.40   -0.42   0.000   0.200   0.000    0.00
  15.300   15.99    6.95   -0.60   0.000   0.200   0.000    0.00
  15.350   15.18    8.81    0.18   0.000   0.200   0.000    0.00
  15.400   16.06   12.67    0.25   0.000   0.200   0.000    0.00
  15.450   16.49   18.07   -0.09   0.000   0.200   0.000    0.00
  15.500   17.02   20.52   -1.32   0.000   0.200   0.000    0.00
  15.550   16.91   19.18    0.12   0.000   0.200   0.000    0.00
  15.600   17.03   17.02    0.17   0.000   0.200   0.000    0.00
  15.650   15.82   11.85   -0.21   0.000   0.200   0.000    0.00
  15.700   15.32   11.80   -1.14   0.000   0.200   0.000    0.00
  15.750   15.70    8.09   -2.26   0.000   0.200   0.000    0.00
  15.800   15.47    8.44   -1.00   0.000   0.200   0.000    0.00
  15.850   15.94   10.58    0.41   0.000   0.200   0.000    0.00
  15.900   15.84   14.44    0.27   0.000   0.200   0.000    0.00
  15.950   16.86   16.45    0.68   0.000   0.200   0.000    0.00
  16.000   17.74   13.65    1.53   0.000   0.200   0.000    0.00
  16.050   17.02   12.53    1.52   0.000   0.200   0.000    0.00
  16.100   16.75   11.50    1.54   0.000   0.200   0.000    0.00
  16.150   16.40   10.44    1.23   0.000   0.200   0.000    0.00
  16.200   15.29    8.02    1.72   0.000   0.200   0.000    0.00
  16.250   14.63    6.82    1.77   0.000   0.200   0.000    0.00
  16.300   13.45   10.38    2.67   0.000   0.200   0.000    0.00
  16.350   13.80   17.06    1.42   0.000   0.200   0.000    0.00
  16.400   13.90   23.96    1.57   0.000   0.200   0.000    0.00
  16.450   14.59   19.10    1.08   0.000   0.200   0.000    0.00
  16.500   14.20   17.09    0.24   0.000   0.200   0.000    0.00
  16.550   14.16   20.25    1.74   0.000   0.200   0.000    0.00
  16.600   14.13   18.07    0.93   0.000   0.200   0.000    0.00
  16.650   14.75   19.23    0.78   0.000   0.200   0.000    0.00
  16.700   13.87   22.68    1.29   0.000   0.200   0.000    0.00
  16.750   14.40   19.18    1.51   0.000   0.200   0.000    0.00
  16.800   14.34   22.50    1.49   0.000   0.200   0.000    0.00
  16.850   14.84   21.59    1.25   0.000   0.200   0.000    0.00
  16.900   14.59   15.74    2.16   0.000   0.200   0.000    0.00
  16.950   14.61    7.13    2.89   0.000   0.200   0.000    0.00
  17.000   15.56    9.48    3.07   0.000   0.200   0.000    0.00
  17.050   15.30    7.08    2.28   0.000   0.200   0.000    0.00
  17.100   15.22    3.94    1.70   0.000   0.200   0.000    0.00
  17.150   15.89    4.68    1.72   0.000   0.200   0.000    0.00
  17.200   15.29   11.39    2.07   0.000   0.200   0.000    0.00
  17.250   15.18   13.48    3.25   0.000   0.200   0.000    0.00
  17.300   16.39   11.57    3.95   0.000   0.200   0.000    0.00
  17.350   17.38   11.32    4.13   0.000   0.200   0.000    0.00
  17.400   17.93    9.80    4.62   0.000   0.200   0.000    0.00
  17.450   18.69    6.42    3.50   0.000   0.200   0.000    0.00
  17.500   19.48    6.98    3.07   0.000   0.200   0.000    0.00
  17.550   17.97    7.91    2.42   0.000   0.200   0.000    0.00
  17.600   17.94    8.25    1.58   0.000   0.200   0.000    0.00
  17.650   19.16   11.19    1.67   0.000   0.200   0.000    0.00
  17.700   19.28   13.72    2.40   0.000   0.200   0.000    0.00
  17.750   18.49   14.31    2.97   0.000   0.200   0.000    0.00
  17.800   17.55   14.69    2.59   0.000   0.200   0.000    0.00
  17.850   17.68   15.84    1.41   0.000   0.200   0.000    0.00
  17.900   17.95   13.17    1.27   0.000   0.200   0.000    0.00
  17.950   18.81    8.49    1.42   0.000   0.200   0.000    0.00
  18.000   18.10    9.82    1.30   0.000   0.200   0.000    0.00
  18.050   17.26    8.14    1.68   0.000   0.200   0.000    0.00
  18.100   17.37   12.75    1.99   0.000   0.200   0.000    0.00
  18.150   17.63   12.10    2.58   0.000   0.200   0.000    0.00
  18.200   17.41   14.77    1.88   0.000   0.200   0.000    0.00
  18.250   16.70   15.08    2.42   0.000   0.200   0.000    0.00
  18.300   16.78   12.98    2.44   0.000   0.200   0.000    0.00
  18.350   17.57   15.04    2.87   0.000   0.200   0.000    0.00
  18.400   18.22   14.94    3.07   0.000   0.200   0.000    0.00
  18.450   18.62   17.13    3.38   0.000   0.200   0.000    0.00
  18.500   19.03   17.21    2.65   0.000   0.200   0.000    0.00
  18.550   19.32   17.82    2.39   0.000   0.200   0.000    0.00
  18.600   19.45   15.92    3.07   0.000   0.200   0.000    0.00
  18.650   18.64   12.95    2.23   0.000   0.200   0.000    0.00
  18.700   19.17   14.14    2.36   0.000   0.200   0.000    0.00
  18.750   19.22   13.54    3.35   0.000   0.200   0.000    0.00
  18.800   18.28   15.50    2.08   0.000   0.200   0.000    0.00
  18.850   18.49   16.59    1.52   0.000   0.200   0.000    0.00
  18.900   17.84   19.10    0.67   0.000   0.200   0.000    0.00
  18.950   18.27   21.33    0.80   0.000   0.200   0.000    0.00
  19.000   19.58   17.87    0.42   0.000   0.200   0.000    0.00
  19.050   19.30   16.17    2.64   0.000   0.200   0.000    0.00
  19.100   19.82   15.14    3.92   0.000   0.200   0.000    0.00
  19.150   19.26   11.67    3.57   0.000   0.200   0.000    0.00
  19.200   18.65   11.73    4.37   0.000   0.200   0.000    0.00
  19.250   18.45   12.56    4.81   0.000   0.200   0.000    0.00
  19.300   18.71   15.75    4.80   0.000   0.200   0.000    0.00
  19.350   19.79   19.00    4.99   0.000   0.200   0.000    0.00
  19.400   19.46   18.74    4.78   0.000   0.200   0.000    0.00
  19.450   17.74   22.85    4.04   0.000   0.200   0.000    0.00
  19.500   17.35   24.74    3.50   0.000   0.200   0.000    0.00
  19.550   18.73   24.48    3.07   0.000   0.200   0.000    0.00
  19.600   18.80   25.07    2.42   0.000   0.200   0.000    0.00
  19.650   18.80   27.21    2.91   0.000   0.200   0.000    0.00
  19.700   17.18   24.91    2.74   0.000   0.200   0.000    0.00
  19.750   17.23   24.38    3.44   0.000   0.200   0.000    0.00
  19.800   16.46   21.90    3.20   0.000   0.200   0.000    0.00
  19.850   16.72   16.42    3.79   0.000   0.200   0.000    0.00
  19.900   16.42   16.22    4.26   0.000   0.200   0.000    0.00
  19.950   16.76   12.72    3.22   0.000   0.200   0.000    0.00
  20.000   16.61   11.82    3.01   0.000   0.200   0.000    0.00
  20.050   16.16   13.05    1.79   0.000   0.200   0.000    0.00
  20.100   16.47   13.96    1.76   0.000   0.200   0.000    0.00
  20.150   16.71   16.06    2.47   0.000   0.200   0.000    0.00
  20.200   16.62   21.66    1.10   0.000   0.200   0.000    0.00
  20.250   16.70   21.40    1.19   0.000   0.200   0.000    0.00
  20.300   16.64   23.40    0.96   0.000   0.200   0.000    0.00
  20.350   17.56   25.40    0.13   0.000   0.200   0.000    0.00
  20.400   17.15   21.93   -0.39   0.000   0.200   0.000    0.00
  20.450   17.73   24.39    0.42   0.000   0.200   0.000    0.00
  20.500   18.80   20.86    0.25   0.000   0.200   0.000    0.00
  20.550   18.34   14.17   -0.10   0.000   0.200   0.000    0.00
  20.600   17.47   12.69   -0.36   0.000   0.200   0.000    0.00
  20.650   17.27   10.27    0.28   0.000   0.200   0.000    0.00
  20.700   16.46    9.94    0.00   0.000   0.200   0.000    0.00
  20.750   15.09   10.51   -0.05   0.000   0.200   0.000    0.00
  20.800   15.97    9.48   -1.03   0.000   0.200   0.000    0.00
  20.850   16.45    9.62    0.31   0.000   0.200   0.000    0.00
  20.900   16.54   11.38    0.79   0.000   0.200   0.000    0.00
  20.950   16.95   10.75    0.42   0.000   0.200   0.000    0.00
  21.000   17.83   13.24    0.79   0.000   0.200   0.000    0.00
  21.050   19.13   12.63    0.57   0.000   0.200   0.000    0.00
  21.100   18.68   12.14   -0.40   0.000   0.200   0.000    0.00
  21.150   18.58   11.58    0.14   0.000   0.200   0.000    0.00
  21.200   18.77    9.10   -0.28   0.000   0.200   0.000    0.00
  21.250   19.06   13.00   -0.24   0.000   0.200   0.000    0.00
  21.300   18.73    9.79    0.70   0.000   0.200   0.000    0.00
  21.350   18.25    7.77   -0.41   0.000   0.200   0.000    0.00
  21.400   18.02    7.42   -1.03   0.000   0.200   0.000    0.00
  21.450   19.84   11.47   -1.39   0.000   0.200   0.000    0.00
  21.500   18.26   14.26   -0.86   0.000   0.200   0.000    0.00
  21.550   17.93   16.99    0.94   0.000   0.200   0.000    0.00
  21.600   17.37   21.91    0.98   0.000   0.200   0.000    0.00
  21.650   17.07   22.01    1.07   0.000   0.200   0.000    0.00
  21.700   18.03   21.90    1.70   0.000   0.200   0.000    0.00
  21.750   18.09   20.25    2.18   0.000   0.200   0.000    0.00
  21.800   17.94   20.09    1.50   0.000   0.200   0.000    0.00
  21.850   16.98   23.54    1.49   0.000   0.200   0.000    0.00
  21.900   16.93   22.87    1.22   0.000   0.200   0.000    0.00
  21.950   16.22   19.93    2.31   0.000   0.200   0.000    0.00
  22.000   16.75   14.60    2.44   0.000   0.200   0.000    0.00
  22.050   16.22   13.98    2.13   0.000   0.200   0.000    0.00
  22.100   16.62   13.04    1.44   0.000   0.200   0.000    0.00
  22.150   17.56   13.72    1.74   0.000   0.200   0.000    0.00
  22.200   17.40   14.48    1.57   0.000   0.200   0.000    0.00
  22.250   16.14   12.39    1.68   0.000   0.200   0.000    0.00
  22.300   15.78   10.24    1.49   0.000   0.200   0.000    0.00
  22.350   15.36    9.13    1.68   0.000   0.200   0.000    0.00