! This hub-height wind-speed file was generated by TurbSim (v1.06.00, 21-Sep-2012) on 16-Jun-2018 at 18:39:05.
!
! The requested statistics for this data were:
!    Mean Total Wind Speed =   17.000 m/s
!    Turbulence Intensity  =   15.112%
!
!   Time  HorSpd  WndDir  VerSpd  HorShr  VerShr  LnVShr  GstSpd
!  (sec)   (m/s)   (deg)   (m/s)     (-)     (-)     (-)   (m/s)
   0.000   17.44   12.02    0.19   0.000   0.200   0.000    0.00
   0.050   17.88   13.87   -0.05   0.000   0.200   0.000    0.00
   0.100   17.92   12.77    0.64   0.000   0.200   0.000    0.00
   0.150   17.97   13.34    0.04   0.000   0.200   0.000    0.00
   0.200   17.08   13.93    0.06   0.000   0.200   0.000    0.00
   0.250   17.23   14.84   -0.35   0.000   0.200   0.000    0.00
   0.300   17.58   12.41   -0.47   0.000   0.200   0.000    0.00
   0.350   18.26   10.79   -0.18   0.000   0.200   0.000    0.00
   0.400   17.71    9.87   -0.57   0.000   0.200   0.000    0.00
   0.450   17.61   10.82   -0.27   0.000   0.200   0.000    0.00
   0.500   17.99    7.82   -0.62   0.000   0.200   0.000    0.00
   0.550   18.02    8.81   -0.88   0.000   0.200   0.000    0.00
   0.600   17.96   11.08   -0.66   0.000   0.200   0.000    0.00
   0.650   17.93   10.95   -0.74   0.000   0.200   0.000    0.00
   0.700   18.07    9.17   -1.34   0.000   0.200   0.000    0.00
   0.750   18.42    9.14   -1.23   0.000   0.200   0.000    0.00
   0.800   18.81   10.29   -0.70   0.000   0.200   0.000    0.00
   0.850   18.65   10.99   -0.84   0.000   0.200   0.000    0.00
   0.900   19.24   12.13   -0.41   0.000   0.200   0.000    0.00
   0.950   18.66   13.62   -1.27   0.000   0.200   0.000    0.00
   1.000   18.44   14.74   -1.60   0.000   0.200   0.000    0.00
   1.050   19.33   12.49   -1.82   0.000   0.200   0.000    0.00
   1.100   18.91    9.05   -2.26   0.000   0.200   0.000    0.00
   1.150   19.92    9.08   -2.05   0.000   0.200   0.000    0.00
   1.200   19.57    8.17   -1.44   0.000   0.200   0.000    0.00
   1.250   19.53    6.22   -0.35   0.000   0.200   0.000    0.00
   1.300   19.39    7.66   -0.03   0.000   0.200   0.000    0.00
   1.350   19.59    6.03   -0.76   0.000   0.200   0.000    0.00
   1.400   19.56    8.31   -0.94   0.000   0.200   0.000    0.00
   1.450   18.74   10.44   -0.53   0.000   0.200   0.000    0.00
   1.500   19.16   10.43    0.30   0.000   0.200   0.000    0.00
   1.550   19.11   10.44   -0.10   0.000   0.200   0.000    0.00
   1.600   19.12   11.96    0.53   0.000   0.200   0.000    0.00
   1.650   18.70   10.78    0.77   0.000   0.200   0.000    0.00
   1.700   18.56   13.23    0.15   0.000   0.200   0.000    0.00
   1.750   17.81   11.17    0.32   0.000   0.200   0.000    0.00
   1.800   17.52   11.36   -0.08   0.000   0.200   0.000    0.00
   1.850   17.34    9.72    0.48   0.000   0.200   0.000    0.00
   1.900   16.51    8.63    0.53   0.000   0.200   0.000    0.00
   1.950   15.81   10.02    0.22   0.000   0.200   0.000    0.00
   2.000   15.51   10.54    0.39   0.000   0.200   0.000    0.00
   2.050   15.33   12.91    1.01   0.000   0.200   0.000    0.00
   2.100   16.29    7.22    0.78   0.000   0.200   0.000    0.00
   2.150   16.35    6.98    0.27   0.000   0.200   0.000    0.00
   2.200   16.40    2.92   -0.11   0.000   0.200   0.000    0.00
   2.250   16.29    2.32   -1.10   0.000   0.200   0.000    0.00
   2.300   16.75    1.48   -0.58   0.000   0.200   0.000    0.00
   2.350   16.20   -1.13   -0.73   0.000   0.200   0.000    0.00
   2.400   15.54    0.91   -1.06   0.000   0.200   0.000    0.00
   2.450   15.39    6.04   -0.81   0.000   0.200   0.000    0.00
   2.500   15.44    6.64    0.24   0.000   0.200   0.000    0.00
   2.550   15.09    4.93   -0.22   0.000   0.200   0.000    0.00
   2.600   14.75    2.86   -1.40   0.000   0.200   0.000    0.00
   2.650   15.68    4.46   -1.58   0.000   0.200   0.000    0.00
   2.700   16.62    3.74   -1.63   0.000   0.200   0.000    0.00
   2.750   17.04    7.01   -1.53   0.000   0.200   0.000    0.00
   2.800   16.66    5.62   -2.21   0.000   0.200   0.000    0.00
   2.850   16.53    5.85   -2.35   0.000   0.200   0.000    0.00
   2.900   16.89    3.27   -2.89   0.000   0.200   0.000    0.00
   2.950   17.22    0.97   -2.51   0.000   0.200   0.000    0.00
   3.000   17.00    2.22   -2.80   0.000   0.200   0.000    0.00
   3.050   16.51   -2.09   -2.94   0.000   0.200   0.000    0.00
   3.100   16.90   -3.05   -2.40   0.000   0.200   0.000    0.00
   3.150   16.05   -2.18   -2.90   0.000   0.200   0.000    0.00
   3.200   15.45   -3.49   -3.39   0.000   0.200   0.000    0.00
   3.250   15.42   -3.11   -3.77   0.000   0.200   0.000    0.00
   3.300   15.62   -2.03   -4.82   0.000   0.200   0.000    0.00
   3.350   16.06   -3.31   -3.77   0.000   0.200   0.000    0.00
   3.400   15.56    0.02   -2.70   0.000   0.200   0.000    0.00
   3.450   16.06   -0.28   -1.93   0.000   0.200   0.000    0.00
   3.500   16.17   -1.40   -1.96   0.000   0.200   0.000    0.00
   3.550   15.74   -1.50   -2.44   0.000   0.200   0.000    0.00
   3.600   15.75   -3.02   -2.20   0.000   0.200   0.000    0.00
   3.650   16.33   -0.28   -2.17   0.000   0.200   0.000    0.00
   3.700   16.08   -4.05   -0.74   0.000   0.200   0.000    0.00
   3.750   16.07   -5.68   -0.53   0.000   0.200   0.000    0.00
   3.800   15.29   -2.55    0.58   0.000   0.200   0.000    0.00
   3.850   15.40   -3.44   -0.28   0.000   0.200   0.000    0.00
   3.900   15.42   -4.83   -0.87   0.000   0.200   0.000    0.00
   3.950   16.04   -6.80   -0.98   0.000   0.200   0.000    0.00
   4.000   15.70  -10.75   -0.36   0.000   0.200   0.000    0.00
   4.050   16.05  -13.75    0.37   0.000   0.200   0.000    0.00
   4.100   16.66  -15.02   -0.06   0.000   0.200   0.000    0.00
   4.150   16.14  -15.21    0.03   0.000   0.200   0.000    0.00
   4.200   16.73  -12.15    0.19   0.000   0.200   0.000    0.00
   4.250   16.97  -12.73    0.43   0.000   0.200   0.000    0.00
   4.300   17.16  -14.54    0.20   0.000   0.200   0.000    0.00
   4.350   16.98  -14.31    0.22   0.000   0.200   0.000    0.00
   4.400   16.49   -9.70    0.12   0.000   0.200   0.000    0.00
   4.450   16.05   -8.60    0.17   0.000   0.200   0.000    0.00
   4.500   15.94   -8.15   -0.01   0.000   0.200   0.000    0.00
   4.550   16.49  -10.04    0.52   0.000   0.200   0.000    0.00
   4.600   17.18   -9.27    1.56   0.000   0.200   0.000    0.00
   4.650   16.92   -9.46    1.25   0.000   0.200   0.000    0.00
   4.700   16.35   -7.64    1.76   0.000   0.200   0.000    0.00
   4.750   16.11   -4.10    1.95   0.000   0.200   0.000    0.00
   4.800   17.10   -2.57    2.21   0.000   0.200   0.000    0.00
   4.850   16.80   -4.45    2.42   0.000   0.200   0.000    0.00
   4.900   16.55   -2.79    2.38   0.000   0.200   0.000    0.00
   4.950   16.28   -2.17    1.91   0.000   0.200   0.000    0.00
   5.000   16.04   -0.12    1.98   0.000   0.200   0.000    0.00
   5.050   16.38   -1.43    1.66   0.000   0.200   0.000    0.00
   5.100   17.39   -1.19    1.22   0.000   0.200   0.000    0.00
   5.150   17.54   -2.99    1.18   0.000   0.200   0.000    0.00
   5.200   17.47   -3.34    1.79   0.000   0.200   0.000    0.00
   5.250   17.52    0.23    1.84   0.000   0.200   0.000    0.00
   5.300   17.59    0.91    2.22   0.000   0.200   0.000    0.00
   5.350   17.68    2.41    2.11   0.000   0.200   0.000    0.00
   5.400   17.93    2.50    0.89   0.000   0.200   0.000    0.00
   5.450   17.99    4.26    0.92   0.000   0.200   0.000    0.00
   5.500   17.81    3.72    0.58   0.000   0.200   0.000    0.00
   5.550   18.64    0.91    0.63   0.000   0.200   0.000    0.00
   5.600   18.92   -1.14    0.64   0.000   0.200   0.000    0.00
   5.650   18.27    3.10    0.47   0.000   0.200   0.000    0.00
   5.700   18.07    1.98    0.13   0.000   0.200   0.000    0.00
   5.750   17.32   -1.44    1.05   0.000   0.200   0.000    0.00
   5.800   17.03    1.90    0.43   0.000   0.200   0.000    0.00
   5.850   16.50    3.73    1.02   0.000   0.200   0.000    0.00
   5.900   16.22    1.68    1.68   0.000   0.200   0.000    0.00
   5.950   16.69    1.02    1.07   0.000   0.200   0.000    0.00
   6.000   16.36    4.02    1.46   0.000   0.200   0.000    0.00
   6.050   16.49    4.11    1.17   0.000   0.200   0.000    0.00
   6.100   16.54    5.71    1.15   0.000   0.200   0.000    0.00
   6.150   16.74   10.31    1.05   0.000   0.200   0.000    0.00
   6.200   17.08    9.55    1.22   0.000   0.200   0.000    0.00
   6.250   17.63    8.61    1.30   0.000   0.200   0.000    0.00
   6.300   17.22    5.54    0.73   0.000   0.200   0.000    0.00
   6.350   17.02    4.28    0.40   0.000   0.200   0.000    0.00
   6.400   17.64    3.64    0.61   0.000   0.200   0.000    0.00
   6.450   17.05    3.81    0.45   0.000   0.200   0.000    0.00
   6.500   17.20    5.51    0.83   0.000   0.200   0.000    0.00
   6.550   17.88    7.47    0.85   0.000   0.200   0.000    0.00
   6.600   17.56    7.82    1.37   0.000   0.200   0.000    0.00
   6.650   17.27    9.50    1.36   0.000   0.200   0.000    0.00
   6.700   17.62    8.83    0.97   0.000   0.200   0.000    0.00
   6.750   16.59    6.73    1.30   0.000   0.200   0.000    0.00
   6.800   16.47    3.52    1.09   0.000   0.200   0.000    0.00
   6.850   16.61    4.63    0.92   0.000   0.200   0.000    0.00
   6.900   16.25    9.04    0.66   0.000   0.200   0.000    0.00
   6.950   16.46    6.32    0.42   0.000   0.200   0.000    0.00
   7.000   15.74    6.39    0.81   0.000   0.200   0.000    0.00
   7.050   15.51    6.75    1.37   0.000   0.200   0.000    0.00
   7.100   16.13    6.38    1.36   0.000   0.200   0.000    0.00
   7.150   16.71    5.03    1.81   0.000   0.200   0.000    0.00
   7.200   16.31    3.08    1.22   0.000   0.200   0.000    0.00
   7.250   15.61    1.79    0.26   0.000   0.200   0.000    0.00
   7.300   16.33    1.47    0.13   0.000   0.200   0.000    0.00
   7.350   16.78   -0.58    0.41   0.000   0.200   0.000    0.00
   7.400   16.29    0.37    0.31   0.000   0.200   0.000    0.00
   7.450   15.40    2.47   -0.82   0.000   0.200   0.000    0.00
   7.500   15.03    4.17   -0.57   0.000   0.200   0.000    0.00
   7.550   15.56    1.60   -0.86   0.000   0.200   0.000    0.00
   7.600   16.28    2.55   -1.36   0.000   0.200   0.000    0.00
   7.650   16.27    1.57   -1.30   0.000   0.200   0.000    0.00
   7.700   16.50   -0.11   -0.38   0.000   0.200   0.000    0.00
   7.750   17.32    1.71    0.01   0.000   0.200   0.000    0.00
   7.800   16.87    3.29    0.60   0.000   0.200   0.000    0.00
   7.850   16.37    5.09    1.22   0.000   0.200   0.000    0.00
   7.900   17.06    5.91    1.49   0.000   0.200   0.000    0.00
   7.950   16.30    5.83    1.82   0.000   0.200   0.000    0.00
   8.000   15.76    5.72    2.15   0.000   0.200   0.000    0.00
   8.050   16.21    5.51    2.04   0.000   0.200   0.000    0.00
   8.100   16.21    7.34    1.53   0.000   0.200   0.000    0.00
   8.150   16.55    7.34    0.82   0.000   0.200   0.000    0.00
   8.200   16.03    3.29    0.69   0.000   0.200   0.000    0.00
   8.250   16.37    4.87    0.58   0.000   0.200   0.000    0.00
   8.300   16.13    4.20   -0.75   0.000   0.200   0.000    0.00
   8.350   16.61    1.90   -0.37   0.000   0.200   0.000    0.00
   8.400   17.13    3.74   -0.44   0.000   0.200   0.000    0.00
   8.450   17.12    3.94   -1.01   0.000   0.200   0.000    0.00
   8.500   16.80    0.56   -0.88   0.000   0.200   0.000    0.00
   8.550   17.07   -1.75   -0.22   0.000   0.200   0.000    0.00
   8.600   16.80   -1.21    0.16   0.000   0.200   0.000    0.00
   8.650   17.37    0.93    0.08   0.000   0.200   0.000    0.00
   8.700   17.53    1.06    0.18   0.000   0.200   0.000    0.00
   8.750   17.35    2.60    0.16   0.000   0.200   0.000    0.00
   8.800   17.37    3.18    0.49   0.000   0.200   0.000    0.00
   8.850   16.95    1.78   -0.08   0.000   0.200   0.000    0.00
   8.900   17.62    1.97    0.45   0.000   0.200   0.000    0.00
   8.950   18.06    6.39    0.46   0.000   0.200   0.000    0.00
   9.000   17.78    6.46   -1.02   0.000   0.200   0.000    0.00
   9.050   18.06    5.92   -1.05   0.000   0.200   0.000    0.00
   9.100   17.92    2.69   -0.24   0.000   0.200   0.000    0.00
   9.150   17.16    0.56   -0.44   0.000   0.200   0.000    0.00
   9.200   16.78    0.65   -0.85   0.000   0.200   0.000    0.00
   9.250   17.26    2.51   -0.88   0.000   0.200   0.000    0.00
   9.300   17.47    5.36   -0.65   0.000   0.200   0.000    0.00
   9.350   17.32    6.64   -1.53   0.000   0.200   0.000    0.00
   9.400   17.66    3.13   -0.70   0.000   0.200   0.000    0.00
   9.450   18.20    2.55    0.22   0.000   0.200   0.000    0.00
   9.500   18.44    2.15   -0.20   0.000   0.200   0.000    0.00
   9.550   18.36   -0.33   -0.90   0.000   0.200   0.000    0.00
   9.600   17.59    0.45   -1.89   0.000   0.200   0.000    0.00
   9.650   17.86   -0.01   -2.08   0.000   0.200   0.000    0.00
   9.700   17.89    2.36   -2.00   0.000   0.200   0.000    0.00
   9.750   17.76   -0.25   -1.63   0.000   0.200   0.000    0.00
   9.800   17.28    0.20   -1.93   0.000   0.200   0.000    0.00
   9.850   17.18   -0.91   -1.55   0.000   0.200   0.000    0.00
   9.900   17.23   -0.61   -1.73   0.000   0.200   0.000    0.00
   9.950   17.55   -0.86   -1.76   0.000   0.200   0.000    0.00
  10.000   17.33    1.52   -1.69   0.000   0.200   0.000    0.00
  10.050   16.65    2.85   -1.33   0.000   0.200   0.000    0.00
  10.100   16.62    3.80   -0.60   0.000   0.200   0.000    0.00
  10.150   16.36    3.45   -0.49   0.000   0.200   0.000    0.00
  10.200   16.53    3.25   -0.84   0.000   0.200   0.000    0.00
  10.250   16.63    0.95    0.34   0.000   0.200   0.000    0.00
  10.300   17.03    2.18    0.85   0.000   0.200   0.000    0.00
  10.350   16.93   -0.61    0.54   0.000   0.200   0.000    0.00
  10.400   17.25   -0.98    0.94   0.000   0.200   0.000    0.00
  10.450   17.88    1.35    1.13   0.000   0.200   0.000    0.00
  10.500   17.60    0.45    0.99   0.000   0.200   0.000    0.00
  10.550   17.22    0.84    0.38   0.000   0.200   0.000    0.00
  10.600   16.94   -0.49    0.44   0.000   0.200   0.000    0.00
  10.650   16.55   -1.78    0.58   0.000   0.200   0.000    0.00
  10.700   15.94   -0.49    0.04   0.000   0.200   0.000    0.00
  10.750   15.29    1.49   -0.08   0.000   0.200   0.000    0.00
  10.800   15.22    2.03    0.05   0.000   0.200   0.000    0.00
  10.850   16.11    3.46    0.59   0.000   0.200   0.000    0.00
  10.900   16.34    2.50    0.72   0.000   0.200   0.000    0.00
  10.950   16.06    0.46    0.93   0.000   0.200   0.000    0.00
  11.000   16.30    0.94    0.68   0.000   0.200   0.000    0.00
  11.050   17.11    1.74    1.00   0.000   0.200   0.000    0.00
  11.100   16.86   -0.45    0.46   0.000   0.200   0.000    0.00
  11.150   17.05   -0.78    0.71   0.000   0.200   0.000    0.00
  11.200   17.43   -1.81    0.75   0.000   0.200   0.000    0.00
  11.250   16.88   -0.11    0.39   0.000   0.200   0.000    0.00
  11.300   16.92    2.33   -0.22   0.000   0.200   0.000    0.00
  11.350   16.95    0.37   -0.52   0.000   0.200   0.000    0.00
  11.400   17.12   -0.51   -0.95   0.000   0.200   0.000    0.00
  11.450   17.28    1.48   -1.45   0.000   0.200   0.000    0.00
  11.500   17.27    5.02   -0.80   0.000   0.200   0.000    0.00
  11.550   18.21    6.36   -1.43   0.000   0.200   0.000    0.00
  11.600   18.57    6.23   -1.13   0.000   0.200   0.000    0.00
  11.650   18.72    4.75   -1.95   0.000   0.200   0.000    0.00
  11.700   18.86    4.35   -1.82   0.000   0.200   0.000    0.00
  11.750   18.80    5.92   -1.75   0.000   0.200   0.000    0.00
  11.800   18.95    4.11   -1.55   0.000   0.200   0.000    0.00
  11.850   18.93    1.65   -2.50   0.000   0.200   0.000    0.00
  11.900   19.31    1.79   -2.58   0.000   0.200   0.000    0.00
  11.950   19.56   -0.06   -2.30   0.000   0.200   0.000    0.00
  12.000   19.54    1.56   -2.75   0.000   0.200   0.000    0.00
  12.050   19.59    0.18   -2.49   0.000   0.200   0.000    0.00
  12.100   19.51    1.12   -2.11   0.000   0.200   0.000    0.00
  12.150   19.98    3.28   -1.74   0.000   0.200   0.000    0.00
  12.200   19.66    3.27   -1.30   0.000   0.200   0.000    0.00
  12.250   19.35    5.25   -0.79   0.000   0.200   0.000    0.00
  12.300   20.08    5.19   -0.90   0.000   0.200   0.000    0.00
  12.350   19.27    5.81   -1.69   0.000   0.200   0.000    0.00
  12.400   19.42    7.82   -1.61   0.000   0.200   0.000    0.00
  12.450   18.87    6.73   -1.37   0.000   0.200   0.000    0.00
  12.500   18.69    6.46   -1.74   0.000   0.200   0.000    0.00
  12.550   19.50    9.35   -1.53   0.000   0.200   0.000    0.00
  12.600   19.31   12.14   -2.31   0.000   0.200   0.000    0.00
  12.650   20.02   10.90   -2.63   0.000   0.200   0.000    0.00
  12.700   20.71    9.80   -2.86   0.000   0.200   0.000    0.00
  12.750   20.69    9.97   -2.17   0.000   0.200   0.000    0.00
  12.800   19.44    6.87   -2.32   0.000   0.200   0.000    0.00
  12.850   19.14    8.66   -1.87   0.000   0.200   0.000    0.00
  12.900   18.79   10.03   -1.25   0.000   0.200   0.000    0.00
  12.950   19.08    9.19   -1.20   0.000   0.200   0.000    0.00
  13.000   18.08    8.17   -1.81   0.000   0.200   0.000    0.00
  13.050   17.75    7.17   -0.36   0.000   0.200   0.000    0.00
  13.100   16.86    4.10   -0.29   0.000   0.200   0.000    0.00
  13.150   17.07    5.67   -0.34   0.000   0.200   0.000    0.00
  13.200   17.03    8.46   -1.31   0.000   0.200   0.000    0.00
  13.250   17.32    9.47   -1.39   0.000   0.200   0.000    0.00
  13.300   17.79    7.90   -1.50   0.000   0.200   0.000    0.00
  13.350   17.71    8.09   -1.17   0.000   0.200   0.000    0.00
  13.400   17.68    7.20   -1.45   0.000   0.200   0.000    0.00
  13.450   17.68    7.38   -1.12   0.000   0.200   0.000    0.00
  13.500   17.44    8.28   -0.70   0.000   0.200   0.000    0.00
  13.550   17.18   10.81   -0.25   0.000   0.200   0.000    0.00
  13.600   17.05   12.49    0.15   0.000   0.200   0.000    0.00
  13.650   17.45   11.58    0.10   0.000   0.200   0.000    0.00
  13.700   18.28   11.04    0.61   0.000   0.200   0.000    0.00
  13.750   18.12    9.22    0.48   0.000   0.200   0.000    0.00
  13.800   18.02   10.21    0.33   0.000   0.200   0.000    0.00
  13.850   18.32    9.09    0.15   0.000   0.200   0.000    0.00
  13.900   17.98    8.90    0.52   0.000   0.200   0.000    0.00
  13.950   16.84    8.78    0.65   0.000   0.200   0.000    0.00
  14.000   16.53    5.18    0.57   0.000   0.200   0.000    0.00
  14.050   16.83    7.24    0.04   0.000   0.200   0.000    0.00
  14.100   17.76    8.11   -0.61   0.000   0.200   0.000    0.00
  14.150   16.99    6.65   -0.37   0.000   0.200   0.000    0.00
  14.200   17.39    4.73   -0.84   0.000   0.200   0.000    0.00
  14.250   17.18    1.85   -1.75   0.000   0.200   0.000    0.00
  14.300   16.93    3.08   -1.31   0.000   0.200   0.000    0.00
  14.350   17.08    4.76   -1.47   0.000   0.200   0.000    0.00
  14.400   17.28    6.68   -1.26   0.000   0.200   0.000    0.00
  14.450   17.40    5.84   -1.61   0.000   0.200   0.000    0.00
  14.500   16.75    6.40   -2.26   0.000   0.200   0.000    0.00
  14.550   17.04    5.86   -1.57   0.000   0.200   0.000    0.00
  14.600   16.88    4.75   -1.56   0.000   0.200   0.000    0.00
  14.650   16.54    3.67   -0.86   0.000   0.200   0.000    0.00
  14.700   17.37    3.43   -1.01   0.000   0.200   0.000    0.00
  14.750   16.63    4.55   -1.34   0.000   0.200   0.000    0.00
  14.800   16.55    1.85   -1.57   0.000   0.200   0.000    0.00
  14.850   16.70    0.12   -1.58   0.000   0.200   0.000    0.00
  14.900   17.09    0.92   -2.04   0.000   0.200   0.000    0.00
  14.950   17.43    0.68   -1.75   0.000   0.200   0.000    0.00
  15.000   17.50    1.04   -2.48   0.000   0.200   0.000    0.00
  15.050   17.65    4.94   -2.42   0.000   0.200   0.000    0.00
  15.100   17.76    5.00   -1.89   0.000   0.200   0.000    0.00
  15.150   18.63    2.31   -1.28   0.000   0.200   0.000    0.00
  15.200   18.66    2.42   -1.19   0.000   0.200   0.000    0.00
  15.250   18.96    1.01   -0.74   0.000   0.200   0.000    0.00
  15.300   19.19    4.33   -0.72   0.000   0.200   0.000    0.00
  15.350   18.57    1.94   -0.59   0.000   0.200   0.000    0.00
  15.400   17.98   -1.72   -0.69   0.000   0.200   0.000    0.00
  15.450   18.32   -2.63    0.47   0.000   0.200   0.000    0.00
  15.500   18.42   -0.76    1.32   0.000   0.200   0.000    0.00
  15.550   18.75   -2.06    1.38   0.000   0.200   0.000    0.00
  15.600   18.47   -4.76    2.12   0.000   0.200   0.000    0.00
  15.650   19.03   -2.56    2.50   0.000   0.200   0.000    0.00
  15.700   20.10   -3.57    1.59   0.000   0.200   0.000    0.00
  15.750   20.23   -2.42    1.69   0.000   0.200   0.000    0.00
  15.800   19.87   -4.49    1.65   0.000   0.200   0.000    0.00
  15.850   19.97   -3.17    1.56   0.000   0.200   0.000    0.00
  15.900   18.44   -4.55    1.46   0.000   0.200   0.000    0.00
  15.950   17.94   -5.04    1.41   0.000   0.200   0.000    0.00
  16.000   18.25   -4.10    1.43   0.000   0.200   0.000    0.00
  16.050   18.37   -4.08    0.93   0.000   0.200   0.000    0.00
  16.100   18.65   -3.05    0.93   0.000   0.200   0.000    0.00
  16.150   19.20   -2.35    0.84   0.000   0.200   0.000    0.00
  16.200   19.35   -0.61    0.35   0.000   0.200   0.000    0.00
  16.250   19.49    1.94    1.67   0.000   0.200   0.000    0.00
  16.300   18.62    2.68    2.63   0.000   0.200   0.000    0.00
  16.350   19.05    2.97    3.28   0.000   0.200   0.000    0.00
  16.400   18.70    2.40    2.38   0.000   0.200   0.000    0.00
  16.450   19.13    2.92    2.42   0.000   0.200   0.000    0.00
  16.500   19.01    5.39    2.14   0.000   0.200   0.000    0.00
  16.550   18.89    3.86    0.83   0.000   0.200   0.000    0.00
  16.600   18.25    4.30    0.96   0.000   0.200   0.000    0.00
  16.650   18.82    5.19    0.41   0.000   0.200   0.000    0.00
  16.700   19.32    1.43    1.11   0.000   0.200   0.000    0.00
  16.750   19.24    0.22    0.67   0.000   0.200   0.000    0.00
  16.800   19.35    0.96    1.34   0.000   0.200   0.000    0.00
  16.850   19.79    2.34    0.87   0.000   0.200   0.000    0.00
  16.900   20.35    2.26    0.06   0.000   0.200   0.000    0.00
  16.950   20.25    0.87   -0.12   0.000   0.200   0.000    0.00
  17.000   19.71   -0.34    0.59   0.000   0.200   0.000    0.00
  17.050   19.22    0.49    0.81   0.000   0.200   0.000    0.00
  17.100   19.59    0.95   -0.34   0.000   0.200   0.000    0.00
  17.150   19.49    2.03   -0.82   0.000   0.200   0.000    0.00
  17.200   19.93    3.11   -1.40   0.000   0.200   0.000    0.00
  17.250   19.52    2.35   -1.46   0.000   0.200   0.000    0.00
  17.300   19.37    3.07   -1.13   0.000   0.200   0.000    0.00
  17.350   18.91    2.36   -0.88   0.000   0.200   0.000    0.00
  17.400   18.56    2.33   -0.88   0.000   0.200   0.000    0.00
  17.450   18.25   -1.24   -0.62   0.000   0.200   0.000    0.00
  17.500   18.70   -2.06   -0.68   0.000   0.200   0.000    0.00
  17.550   19.36    2.24   -0.40   0.000   0.200   0.000    0.00
  17.600   19.74    3.13    0.44   0.000   0.200   0.000    0.00
  17.650   19.61    1.22    0.38   0.000   0.200   0.000    0.00
  17.700   19.86    0.37    0.35   0.000   0.200   0.000    0.00
  17.750   18.83    3.40    0.37   0.000   0.200   0.000    0.00
  17.800   18.53    4.26    0.13   0.000   0.200   0.000    0.00
  17.850   18.93    4.16   -0.37   0.000   0.200   0.000    0.00
  17.900   18.62    3.05   -0.99   0.000   0.200   0.000    0.00
  17.950   18.36    2.36   -0.45   0.000   0.200   0.000    0.00
  18.000   18.44    2.69   -0.22   0.000   0.200   0.000    0.00
  18.050   18.21    2.58   -0.31   0.000   0.200   0.000    0.00
  18.100   18.66    2.86   -0.63   0.000   0.200   0.000    0.00
  18.150   18.18    4.28   -0.54   0.000   0.200   0.000    0.00
  18.200   18.31    2.80   -0.43   0.000   0.200   0.000    0.00
  18.250   18.34    5.43   -0.52   0.000   0.200   0.000    0.00
  18.300   18.04    6.08   -0.05   0.000   0.200   0.000    0.00
  18.350   18.78    4.50    0.08   0.000   0.200   0.000    0.00
  18.400   18.65    5.00    0.33   0.000   0.200   0.000    0.00
  18.450   18.41    3.99    1.25   0.000   0.200   0.000    0.00
  18.500   18.98    5.41    0.86   0.000   0.200   0.000    0.00
  18.550   19.74    3.35    0.23   0.000   0.200   0.000    0.00
  18.600   19.50    5.17    0.40   0.000   0.200   0.000    0.00
  18.650   19.50    3.99    0.86   0.000   0.200   0.000    0.00
  18.700   20.24    1.60    0.72   0.000   0.200   0.000    0.00
  18.750   20.13    0.33    0.35   0.000   0.200   0.000    0.00
  18.800   19.42    0.88    1.44   0.000   0.200   0.000    0.00
  18.850   19.23    3.49    1.95   0.000   0.200   0.000    0.00
  18.900   19.72    5.63    1.84   0.000   0.200   0.000    0.00
  18.950   19.58    4.18    1.84   0.000   0.200   0.000    0.00
  19.000   19.50    4.07    0.91   0.000   0.200   0.000    0.00
  19.050   19.19    4.25    2.16   0.000   0.200   0.000    0.00
  19.100   19.81    3.27    1.92   0.000   0.200   0.000    0.00
  19.150   19.60    5.43    1.49   0.000   0.200   0.000    0.00
  19.200   20.00    7.31    0.33   0.000   0.200   0.000    0.00
  19.250   19.69    8.20    0.13   0.000   0.200   0.000    0.00
  19.300   20.09   10.36    0.02   0.000   0.200   0.000    0.00
  19.350   21.08    9.84   -0.70   0.000   0.200   0.000    0.00
  19.400   20.79    8.22   -0.64   0.000   0.200   0.000    0.00
  19.450   20.68    7.96   -0.41   0.000   0.200   0.000    0.00
  19.500   19.93    9.40   -0.95   0.000   0.200   0.000    0.00
  19.550   19.56    8.28   -0.64   0.000   0.200   0.000    0.00
  19.600   19.18    7.56   -1.33   0.000   0.200   0.000    0.00
  19.650   19.46    6.00   -2.49   0.000   0.200   0.000    0.00
  19.700   19.09    5.81   -1.99   0.000   0.200   0.000    0.00
  19.750   18.96    4.98   -1.96   0.000   0.200   0.000    0.00
  19.800   19.63    6.39   -2.11   0.000   0.200   0.000    0.00
  19.850   19.76    7.77   -2.50   0.000   0.200   0.000    0.00
  19.900   20.14    6.78   -2.74   0.000   0.200   0.000    0.00
  19.950   20.75    8.98   -2.23   0.000   0.200   0.000    0.00
  20.000   20.23    9.80   -2.06   0.000   0.200   0.000    0.00
  20.050   20.09    9.47   -2.50   0.000   0.200   0.000    0.00
  20.100   19.86   10.78   -2.65   0.000   0.200   0.000    0.00
  20.150   19.74    7.89   -2.90   0.000   0.200   0.000    0.00
  20.200   19.44    8.27   -4.33   0.000   0.200   0.000    0.00
  20.250   20.07    7.69   -3.44   0.000   0.200   0.000    0.00
  20.300   20.24    4.33   -3.10   0.000   0.200   0.000    0.00
  20.350   20.50    4.39   -2.59   0.000   0.200   0.000    0.00
  20.400   21.59    6.38   -3.06   0.000   0.200   0.000    0.00
  20.450   21.76    7.51   -2.82   0.000   0.200   0.000    0.00
  20.500   21.07    8.52   -2.42   0.000   0.200   0.000    0.00
  20.550   20.97    8.71   -1.93   0.000   0.200   0.000    0.00
  20.600   20.73    7.89   -1.29   0.000   0.200   0.000    0.00
  20.650   20.71    9.02   -1.28   0.000   0.200   0.000    0.00
  20.700   20.79   11.32   -2.27   0.000   0.200   0.000    0.00
  20.750   20.02   11.15   -2.13   0.000   0.200   0.000    0.00
  20.800   19.64    9.05   -2.40   0.000   0.200   0.000    0.00
  20.850   19.60    8.14   -1.55   0.000   0.200   0.000    0.00
  20.900   20.24    7.98   -1.79   0.000   0.200   0.000    0.00
  20.950   20.90    7.28   -2.16   0.000   0.200   0.000    0.00
  21.000   20.77    9.36   -2.60   0.000   0.200   0.000    0.00
  21.050   20.20    8.59   -1.93   0.000   0.200   0.000    0.00
  21.100   20.10    6.89   -1.93   0.000   0.200   0.000    0.00
  21.150   20.27    6.28   -2.23   0.000   0.200   0.000    0.00
  21.200   21.19    6.80   -2.46   0.000   0.200   0.000    0.00
  21.250   21.84    7.38   -2.32   0.000   0.200   0.000    0.00
  21.300   21.96    4.82   -2.77   0.000   0.200   0.000    0.00
  21.350   21.81    4.96   -2.50   0.000   0.200   0.000    0.00
  21.400   20.77    7.40   -2.47   0.000   0.200   0.000    0.00
  21.450   21.27    8.38   -3.35   0.000   0.200   0.000    0.00
  21.500   22.09    9.82   -2.38   0.000   0.200   0.000    0.00
  21.550   21.85    8.42   -2.65   0.000   0.200   0.000    0.00
  21.600   22.46   10.20   -1.58   0.000   0.200   0.000    0.00
  21.650   22.64    8.20   -1.35   0.000   0.200   0.000    0.00
  21.700   22.41    7.03   -2.14   0.000   0.200   0.000    0.00
  21.750   22.71    5.41   -2.36   0.000   0.200   0.000    0.00
  21.800   22.78    6.08   -2.05   0.000   0.200   0.000    0.00
  21.850   21.94    5.47   -1.63   0.000   0.200   0.000    0.00
  21.900   21.56    5.86   -2.78   0.000   0.200   0.000    0.00
  21.950   21.25    8.20   -3.68   0.000   0.200   0.000    0.00
  22.000   21.04    9.65   -3.76   0.000   0.200   0.000    0.00
  22.050   20.78   10.30   -3.01   0.000   0.200   0.000    0.00
  22.100   20.81   12.26   -3.02   0.000   0.200   0.000    0.00
  22.150   20.68   13.28   -1.74   0.000   0.200   0.000    0.00
  22.200   20.50   12.19   -1.81   0.000   0.200   0.000    0.00
  22.250   19.94   10.58   -1.42   0.000   0.200   0.000    0.00
  22.300   19.86   10.02   -2.37   0.000   0.200   0.000    0.00
  22.350   19.71   10.73   -2.82   0.000   0.200   0.000    0.00