! This hub-height wind-speed file was generated by TurbSim (v1.06.00, 21-Sep-2012) on 16-Jun-2018 at 18:31:58.
!
! The requested statistics for this data were:
!    Mean Total Wind Speed =   15.000 m/s
!    Turbulence Intensity  =   22.430%
!
!   Time  HorSpd  WndDir  VerSpd  HorShr  VerShr  LnVShr  GstSpd
!  (sec)   (m/s)   (deg)   (m/s)     (-)     (-)     (-)   (m/s)
   0.000   20.34   10.58    2.16   0.000   0.200   0.000    0.00
   0.050   19.66   10.67    1.87   0.000   0.200   0.000    0.00
   0.100   19.49   12.12    1.34   0.000   0.200   0.000    0.00
   0.150   19.87   10.05    1.39   0.000   0.200   0.000    0.00
   0.200   19.43    5.60    0.86   0.000   0.200   0.000    0.00
   0.250   19.46    7.01    0.31   0.000   0.200   0.000    0.00
   0.300   18.83    9.36    0.17   0.000   0.200   0.000    0.00
   0.350   17.99    8.76    0.40   0.000   0.200   0.000    0.00
   0.400   18.07   11.93    0.66   0.000   0.200   0.000    0.00
   0.450   18.39   10.43    1.01   0.000   0.200   0.000    0.00
   0.500   18.57   10.60    0.40   0.000   0.200   0.000    0.00
   0.550   19.53    9.83   -0.31   0.000   0.200   0.000    0.00
   0.600   19.47    8.60    0.15   0.000   0.200   0.000    0.00
   0.650   19.51    7.88    0.48   0.000   0.200   0.000    0.00
   0.700   19.05    7.40   -0.32   0.000   0.200   0.000    0.00
   0.750   19.95    7.19    0.78   0.000   0.200   0.000    0.00
   0.800   19.03    9.27    1.59   0.000   0.200   0.000    0.00
   0.850   19.63   10.24    1.47   0.000   0.200   0.000    0.00
   0.900   19.22    8.72    0.66   0.000   0.200   0.000    0.00
   0.950   19.34    9.31    0.50   0.000   0.200   0.000    0.00
   1.000   19.23    7.88    0.83   0.000   0.200   0.000    0.00
   1.050   18.64    8.48   -0.10   0.000   0.200   0.000    0.00
   1.100   18.57    6.93    0.26   0.000   0.200   0.000    0.00
   1.150   19.41    7.09    0.97   0.000   0.200   0.000    0.00
   1.200   19.91    6.76    1.38   0.000   0.200   0.000    0.00
   1.250   19.83    5.33    0.58   0.000   0.200   0.000    0.00
   1.300   20.21    8.43    0.89   0.000   0.200   0.000    0.00
   1.350   19.75    8.43   -0.46   0.000   0.200   0.000    0.00
   1.400   19.85   10.26    0.72   0.000   0.200   0.000    0.00
   1.450   20.71   10.65    0.97   0.000   0.200   0.000    0.00
   1.500   20.12   11.01    0.66   0.000   0.200   0.000    0.00
   1.550   20.38   11.86    1.70   0.000   0.200   0.000    0.00
   1.600   20.66   12.67    1.66   0.000   0.200   0.000    0.00
   1.650   20.85   12.31    2.33   0.000   0.200   0.000    0.00
   1.700   20.36   12.30    2.72   0.000   0.200   0.000    0.00
   1.750   19.95   11.13    3.18   0.000   0.200   0.000    0.00
   1.800   20.19   10.60    3.07   0.000   0.200   0.000    0.00
   1.850   19.93    9.42    2.50   0.000   0.200   0.000    0.00
   1.900   19.64    9.34    2.93   0.000   0.200   0.000    0.00
   1.950   19.48    8.97    2.50   0.000   0.200   0.000    0.00
   2.000   19.73    6.83    3.15   0.000   0.200   0.000    0.00
   2.050   20.74    8.42    3.51   0.000   0.200   0.000    0.00
   2.100   21.98    7.87    2.68   0.000   0.200   0.000    0.00
   2.150   22.42    8.85    2.01   0.000   0.200   0.000    0.00
   2.200   22.66    9.49    1.17   0.000   0.200   0.000    0.00
   2.250   21.82   10.97    1.35   0.000   0.200   0.000    0.00
   2.300   22.12   11.30    1.16   0.000   0.200   0.000    0.00
   2.350   20.83    8.76    0.57   0.000   0.200   0.000    0.00
   2.400   20.56    7.18   -0.29   0.000   0.200   0.000    0.00
   2.450   21.12    5.15    0.00   0.000   0.200   0.000    0.00
   2.500   21.80    3.32    0.66   0.000   0.200   0.000    0.00
   2.550   21.95    3.55    1.73   0.000   0.200   0.000    0.00
   2.600   21.95    5.22    1.49   0.000   0.200   0.000    0.00
   2.650   20.82    5.31    1.02   0.000   0.200   0.000    0.00
   2.700   20.48    7.44    0.23   0.000   0.200   0.000    0.00
   2.750   21.14    7.27    0.10   0.000   0.200   0.000    0.00
   2.800   19.77    5.42   -0.11   0.000   0.200   0.000    0.00
   2.850   19.15    1.45   -0.62   0.000   0.200   0.000    0.00
   2.900   18.93    3.00   -2.02   0.000   0.200   0.000    0.00
   2.950   18.00    1.83   -0.57   0.000   0.200   0.000    0.00
   3.000   18.35    5.42    0.26   0.000   0.200   0.000    0.00
   3.050   18.90    1.72    0.21   0.000   0.200   0.000    0.00
   3.100   19.24    4.89   -0.06   0.000   0.200   0.000    0.00
   3.150   19.06    5.51   -1.37   0.000   0.200   0.000    0.00
   3.200   18.60    7.18   -0.56   0.000   0.200   0.000    0.00
   3.250   18.33    6.66   -0.97   0.000   0.200   0.000    0.00
   3.300   16.47    9.57   -1.44   0.000   0.200   0.000    0.00
   3.350   16.34   10.12   -1.18   0.000   0.200   0.000    0.00
   3.400   16.86    9.32   -0.78   0.000   0.200   0.000    0.00
   3.450   17.26    7.35    0.72   0.000   0.200   0.000    0.00
   3.500   17.35   11.17    0.46   0.000   0.200   0.000    0.00
   3.550   16.83    8.79   -0.36   0.000   0.200   0.000    0.00
   3.600   17.07    8.26   -0.86   0.000   0.200   0.000    0.00
   3.650   17.16    6.18    0.45   0.000   0.200   0.000    0.00
   3.700   16.81    5.01    0.49   0.000   0.200   0.000    0.00
   3.750   16.51    3.45   -0.03   0.000   0.200   0.000    0.00
   3.800   16.96   -0.82    0.19   0.000   0.200   0.000    0.00
   3.850   16.84    2.63    0.17   0.000   0.200   0.000    0.00
   3.900   16.91    6.90    0.67   0.000   0.200   0.000    0.00
   3.950   16.24    8.83    1.22   0.000   0.200   0.000    0.00
   4.000   16.53    6.79    0.41   0.000   0.200   0.000    0.00
   4.050   16.33    5.35    0.85   0.000   0.200   0.000    0.00
   4.100   16.70    2.93    1.14   0.000   0.200   0.000    0.00
   4.150   17.66    3.31    0.40   0.000   0.200   0.000    0.00
   4.200   18.01    1.95    0.89   0.000   0.200   0.000    0.00
   4.250   18.47    3.18   -0.25   0.000   0.200   0.000    0.00
   4.300   18.38   -1.24    0.22   0.000   0.200   0.000    0.00
   4.350   18.71   -1.59    1.07   0.000   0.200   0.000    0.00
   4.400   18.41   -1.04    0.48   0.000   0.200   0.000    0.00
   4.450   18.49    4.77    0.89   0.000   0.200   0.000    0.00
   4.500   18.14    3.26   -0.16   0.000   0.200   0.000    0.00
   4.550   17.42    4.02   -0.83   0.000   0.200   0.000    0.00
   4.600   16.13    3.14   -0.02   0.000   0.200   0.000    0.00
   4.650   16.30    0.78    0.18   0.000   0.200   0.000    0.00
   4.700   16.14    1.13    1.11   0.000   0.200   0.000    0.00
   4.750   15.76    5.36    1.43   0.000   0.200   0.000    0.00
   4.800   16.65    7.70    1.77   0.000   0.200   0.000    0.00
   4.850   17.42    8.86    1.69   0.000   0.200   0.000    0.00
   4.900   16.96    7.87    1.36   0.000   0.200   0.000    0.00
   4.950   16.85    7.52    1.03   0.000   0.200   0.000    0.00
   5.000   16.06    5.97    0.21   0.000   0.200   0.000    0.00
   5.050   15.77    9.07    0.80   0.000   0.200   0.000    0.00
   5.100   15.17   13.17    0.50   0.000   0.200   0.000    0.00
   5.150   15.29    9.63   -0.21   0.000   0.200   0.000    0.00
   5.200   15.91   12.03    0.39   0.000   0.200   0.000    0.00
   5.250   15.99   12.70   -0.67   0.000   0.200   0.000    0.00
   5.300   16.45   11.90   -0.87   0.000   0.200   0.000    0.00
   5.350   16.27   12.34   -0.93   0.000   0.200   0.000    0.00
   5.400   15.62   12.34   -0.84   0.000   0.200   0.000    0.00
   5.450   16.29   12.33   -1.00   0.000   0.200   0.000    0.00
   5.500   15.61    7.83   -0.59   0.000   0.200   0.000    0.00
   5.550   15.51    6.14   -0.92   0.000   0.200   0.000    0.00
   5.600   15.23    7.67   -0.36   0.000   0.200   0.000    0.00
   5.650   15.15   10.34   -0.03   0.000   0.200   0.000    0.00
   5.700   14.67   11.22   -0.65   0.000   0.200   0.000    0.00
   5.750   14.25   12.87   -0.99   0.000   0.200   0.000    0.00
   5.800   14.68   16.47   -1.36   0.000   0.200   0.000    0.00
   5.850   15.56   11.17   -1.16   0.000   0.200   0.000    0.00
   5.900   15.33   10.52   -1.12   0.000   0.200   0.000    0.00
   5.950   14.65    9.45   -0.53   0.000   0.200   0.000    0.00
   6.000   14.50    7.38   -0.98   0.000   0.200   0.000    0.00
   6.050   14.66    8.51   -1.38   0.000   0.200   0.000    0.00
   6.100   14.66    3.10   -0.74   0.000   0.200   0.000    0.00
   6.150   15.51    4.10   -0.94   0.000   0.200   0.000    0.00
   6.200   14.08    5.16   -1.31   0.000   0.200   0.000    0.00
   6.250   14.04    2.13   -0.23   0.000   0.200   0.000    0.00
   6.300   14.44    1.31    0.45   0.000   0.200   0.000    0.00
   6.350   13.77    1.63    0.38   0.000   0.200   0.000    0.00
   6.400   13.65    1.89    1.20   0.000   0.200   0.000    0.00
   6.450   14.12   -1.77    1.45   0.000   0.200   0.000    0.00
   6.500   13.83   -2.50    0.09   0.000   0.200   0.000    0.00
   6.550   14.28    1.68   -0.20   0.000   0.200   0.000    0.00
   6.600   13.69    1.65   -0.14   0.000   0.200   0.000    0.00
   6.650   13.62    0.55   -0.03   0.000   0.200   0.000    0.00
   6.700   13.89    0.89   -0.15   0.000   0.200   0.000    0.00
   6.750   14.23    1.18    0.26   0.000   0.200   0.000    0.00
   6.800   13.97    5.40    0.24   0.000   0.200   0.000    0.00
   6.850   13.64    6.82    0.33   0.000   0.200   0.000    0.00
   6.900   13.61    7.69    1.27   0.000   0.200   0.000    0.00
   6.950   14.23    5.72    0.17   0.000   0.200   0.000    0.00
   7.000   13.71    7.12    0.92   0.000   0.200   0.000    0.00
   7.050   14.22   10.34    0.24   0.000   0.200   0.000    0.00
   7.100   14.19    7.82   -0.23   0.000   0.200   0.000    0.00
   7.150   14.20   11.04    0.53   0.000   0.200   0.000    0.00
   7.200   13.97   13.86    1.57   0.000   0.200   0.000    0.00
   7.250   13.58   13.16    1.63   0.000   0.200   0.000    0.00
   7.300   14.11   20.58    1.22   0.000   0.200   0.000    0.00
   7.350   14.05   16.98    1.93   0.000   0.200   0.000    0.00
   7.400   14.78   13.39    1.35   0.000   0.200   0.000    0.00
   7.450   14.93   13.03    0.96   0.000   0.200   0.000    0.00
   7.500   14.03   12.11    0.15   0.000   0.200   0.000    0.00
   7.550   14.01   13.29    0.84   0.000   0.200   0.000    0.00
   7.600   15.34   11.04    1.07   0.000   0.200   0.000    0.00
   7.650   15.49   12.17    1.36   0.000   0.200   0.000    0.00
   7.700   16.03   11.25   -0.46   0.000   0.200   0.000    0.00
   7.750   16.77    6.58   -0.89   0.000   0.200   0.000    0.00
   7.800   16.49    9.27   -0.32   0.000   0.200   0.000    0.00
   7.850   16.83    4.63   -0.56   0.000   0.200   0.000    0.00
   7.900   15.47    3.62   -0.43   0.000   0.200   0.000    0.00
   7.950   16.10    6.03   -0.33   0.000   0.200   0.000    0.00
   8.000   15.71    3.02    0.76   0.000   0.200   0.000    0.00
   8.050   15.68    0.75    0.81   0.000   0.200   0.000    0.00
   8.100   15.67    1.95   -0.07   0.000   0.200   0.000    0.00
   8.150   15.12    1.93    0.47   0.000   0.200   0.000    0.00
   8.200   15.84    4.87   -0.35   0.000   0.200   0.000    0.00
   8.250   16.07    3.99   -0.19   0.000   0.200   0.000    0.00
   8.300   16.70   -0.67    0.40   0.000   0.200   0.000    0.00
   8.350   17.35   -0.56    0.94   0.000   0.200   0.000    0.00
   8.400   16.94   -1.56    1.66   0.000   0.200   0.000    0.00
   8.450   16.84   -0.60    0.08   0.000   0.200   0.000    0.00
   8.500   16.24   -1.57   -0.28   0.000   0.200   0.000    0.00
   8.550   16.56   -0.43    0.30   0.000   0.200   0.000    0.00
   8.600   16.22    1.88    0.19   0.000   0.200   0.000    0.00
   8.650   16.09   -0.57   -0.61   0.000   0.200   0.000    0.00
   8.700   15.84   -0.81    1.01   0.000   0.200   0.000    0.00
   8.750   16.27   -2.64    1.34   0.000   0.200   0.000    0.00
   8.800   16.35   -0.25    1.69   0.000   0.200   0.000    0.00
   8.850   16.33    1.19    0.43   0.000   0.200   0.000    0.00
   8.900   16.62    1.87   -0.54   0.000   0.200   0.000    0.00
   8.950   16.56    1.94    0.40   0.000   0.200   0.000    0.00
   9.000   16.44    3.39    0.94   0.000   0.200   0.000    0.00
   9.050   17.08    6.55    0.96   0.000   0.200   0.000    0.00
   9.100   17.55    7.62    0.69   0.000   0.200   0.000    0.00
   9.150   17.35    9.24   -0.24   0.000   0.200   0.000    0.00
   9.200   16.74    6.54   -0.37   0.000   0.200   0.000    0.00
   9.250   16.50    5.71   -0.29   0.000   0.200   0.000    0.00
   9.300   16.69    5.52   -0.59   0.000   0.200   0.000    0.00
   9.350   16.97    4.80   -0.24   0.000   0.200   0.000    0.00
   9.400   16.79    8.00   -0.05   0.000   0.200   0.000    0.00
   9.450   16.50    6.64   -0.47   0.000   0.200   0.000    0.00
   9.500   16.36    9.78   -1.65   0.000   0.200   0.000    0.00
   9.550   15.78    9.67   -0.31   0.000   0.200   0.000    0.00
   9.600   15.63    4.24   -1.41   0.000   0.200   0.000    0.00
   9.650   15.54    3.20   -0.93   0.000   0.200   0.000    0.00
   9.700   16.16    8.56   -1.28   0.000   0.200   0.000    0.00
   9.750   16.04   10.16   -1.62   0.000   0.200   0.000    0.00
   9.800   16.00    4.32   -0.87   0.000   0.200   0.000    0.00
   9.850   17.12    8.18   -0.91   0.000   0.200   0.000    0.00
   9.900   16.98   10.05   -0.02   0.000   0.200   0.000    0.00
   9.950   17.16    8.47   -0.52   0.000   0.200   0.000    0.00
  10.000   17.93    9.26   -1.42   0.000   0.200   0.000    0.00
  10.050   18.51    8.65   -1.55   0.000   0.200   0.000    0.00
  10.100   18.93    8.90   -1.43   0.000   0.200   0.000    0.00
  10.150   19.39    7.55   -2.51   0.000   0.200   0.000    0.00
  10.200   18.05    7.18   -3.28   0.000   0.200   0.000    0.00
  10.250   17.54   11.30   -3.76   0.000   0.200   0.000    0.00
  10.300   17.58   12.76   -3.78   0.000   0.200   0.000    0.00
  10.350   16.69   12.50   -3.36   0.000   0.200   0.000    0.00
  10.400   17.49   13.07   -2.76   0.000   0.200   0.000    0.00
  10.450   17.26   11.85   -1.49   0.000   0.200   0.000    0.00
  10.500   19.04    9.45   -0.85   0.000   0.200   0.000    0.00
  10.550   18.04   11.88   -1.28   0.000   0.200   0.000    0.00
  10.600   17.31   12.21   -0.32   0.000   0.200   0.000    0.00
  10.650   17.51   14.83   -0.58   0.000   0.200   0.000    0.00
  10.700   17.46   17.23   -1.59   0.000   0.200   0.000    0.00
  10.750   17.50   15.74   -0.64   0.000   0.200   0.000    0.00
  10.800   17.35   12.09    0.23   0.000   0.200   0.000    0.00
  10.850   17.92   11.92   -0.76   0.000   0.200   0.000    0.00
  10.900   18.00   11.83   -1.61   0.000   0.200   0.000    0.00
  10.950   19.64   10.66   -0.47   0.000   0.200   0.000    0.00
  11.000   21.22    9.44    0.28   0.000   0.200   0.000    0.00
  11.050   21.17   11.49   -0.40   0.000   0.200   0.000    0.00
  11.100   20.72   14.80   -0.72   0.000   0.200   0.000    0.00
  11.150   20.53   10.75    0.06   0.000   0.200   0.000    0.00
  11.200   19.17   10.08   -0.63   0.000   0.200   0.000    0.00
  11.250   18.94   10.51   -0.24   0.000   0.200   0.000    0.00
  11.300   21.01    7.58   -1.06   0.000   0.200   0.000    0.00
  11.350   20.29    6.81   -0.79   0.000   0.200   0.000    0.00
  11.400   19.67    6.63   -0.01   0.000   0.200   0.000    0.00
  11.450   19.81    5.77    0.11   0.000   0.200   0.000    0.00
  11.500   19.27    6.51   -0.33   0.000   0.200   0.000    0.00
  11.550   19.24    4.81   -0.60   0.000   0.200   0.000    0.00
  11.600   19.09    0.66   -0.86   0.000   0.200   0.000    0.00
  11.650   18.05    0.68   -1.29   0.000   0.200   0.000    0.00
  11.700   17.64    4.92   -2.08   0.000   0.200   0.000    0.00
  11.750   17.02    4.04   -1.44   0.000   0.200   0.000    0.00
  11.800   17.47    6.15   -1.22   0.000   0.200   0.000    0.00
  11.850   17.82    7.32   -1.05   0.000   0.200   0.000    0.00
  11.900   18.01    4.62   -1.04   0.000   0.200   0.000    0.00
  11.950   17.41    6.35   -1.45   0.000   0.200   0.000    0.00
  12.000   16.10    8.01   -1.18   0.000   0.200   0.000    0.00
  12.050   17.08   10.17   -0.79   0.000   0.200   0.000    0.00
  12.100   16.92   11.85   -1.59   0.000   0.200   0.000    0.00
  12.150   17.68   10.07   -1.47   0.000   0.200   0.000    0.00
  12.200   17.68   14.50   -1.46   0.000   0.200   0.000    0.00
  12.250   17.23   12.49   -1.55   0.000   0.200   0.000    0.00
  12.300   18.47    9.34   -1.05   0.000   0.200   0.000    0.00
  12.350   19.31    8.96   -1.00   0.000   0.200   0.000    0.00
  12.400   19.91    8.12    0.20   0.000   0.200   0.000    0.00
  12.450   19.96    9.77   -0.37   0.000   0.200   0.000    0.00
  12.500   18.02    6.59   -0.02   0.000   0.200   0.000    0.00
  12.550   19.23    8.08   -0.33   0.000   0.200   0.000    0.00
  12.600   19.38   10.60   -0.21   0.000   0.200   0.000    0.00
  12.650   19.72   11.99   -1.06   0.000   0.200   0.000    0.00
  12.700   19.75   11.05   -0.53   0.000   0.200   0.000    0.00
  12.750   18.96   10.41   -1.29   0.000   0.200   0.000    0.00
  12.800   19.13   11.54   -2.06   0.000   0.200   0.000    0.00
  12.850   18.62   13.19   -1.29   0.000   0.200   0.000    0.00
  12.900   18.43   12.53   -1.58   0.000   0.200   0.000    0.00
  12.950   18.28   13.38   -1.61   0.000   0.200   0.000    0.00
  13.000   18.13   14.26   -0.25   0.000   0.200   0.000    0.00
  13.050   17.71   15.90    0.69   0.000   0.200   0.000    0.00
  13.100   17.46   12.38    1.06   0.000   0.200   0.000    0.00
  13.150   17.84    9.18    1.46   0.000   0.200   0.000    0.00
  13.200   18.17    9.72    0.69   0.000   0.200   0.000    0.00
  13.250   18.67    8.53    2.06   0.000   0.200   0.000    0.00
  13.300   18.89    6.80    1.17   0.000   0.200   0.000    0.00
  13.350   18.51    7.68    1.30   0.000   0.200   0.000    0.00
  13.400   18.34    7.46    0.79   0.000   0.200   0.000    0.00
  13.450   18.58    6.81    1.12   0.000   0.200   0.000    0.00
  13.500   17.94    8.50    1.63   0.000   0.200   0.000    0.00
  13.550   18.02    5.17    2.23   0.000   0.200   0.000    0.00
  13.600   17.92    3.94    1.64   0.000   0.200   0.000    0.00
  13.650   16.81    1.43    1.55   0.000   0.200   0.000    0.00
  13.700   16.41    1.35    2.76   0.000   0.200   0.000    0.00
  13.750   16.69    1.16    1.66   0.000   0.200   0.000    0.00
  13.800   16.34    2.14    1.33   0.000   0.200   0.000    0.00
  13.850   15.32   -1.24    2.10   0.000   0.200   0.000    0.00
  13.900   14.70   -3.74    1.64   0.000   0.200   0.000    0.00
  13.950   14.83   -5.44    1.69   0.000   0.200   0.000    0.00
  14.000   15.89   -5.70    1.84   0.000   0.200   0.000    0.00
  14.050   14.58   -5.00    0.99   0.000   0.200   0.000    0.00
  14.100   15.14   -3.67    1.26   0.000   0.200   0.000    0.00
  14.150   14.80   -4.81    0.57   0.000   0.200   0.000    0.00
  14.200   13.84   -4.47    0.07   0.000   0.200   0.000    0.00
  14.250   14.02   -5.15    0.91   0.000   0.200   0.000    0.00
  14.300   13.67   -7.23    1.44   0.000   0.200   0.000    0.00
  14.350   13.42   -8.01    1.61   0.000   0.200   0.000    0.00
  14.400   13.04   -3.91    1.11   0.000   0.200   0.000    0.00
  14.450   13.50   -7.76    1.45   0.000   0.200   0.000    0.00
  14.500   14.02   -9.06    2.16   0.000   0.200   0.000    0.00
  14.550   13.50   -9.01    1.95   0.000   0.200   0.000    0.00
  14.600   12.74   -5.01    1.76   0.000   0.200   0.000    0.00
  14.650   13.46   -2.42    1.52   0.000   0.200   0.000    0.00
  14.700   13.49   -3.03    2.53   0.000   0.200   0.000    0.00
  14.750   13.67   -1.94    3.19   0.000   0.200   0.000    0.00
  14.800   14.03   -3.21    3.09   0.000   0.200   0.000    0.00
  14.850   13.38   -2.85    3.75   0.000   0.200   0.000    0.00
  14.900   12.18    4.39    3.05   0.000   0.200   0.000    0.00
  14.950   11.70    9.35    2.79   0.000   0.200   0.000    0.00
  15.000   11.50   10.60    3.38   0.000   0.200   0.000    0.00
  15.050   11.97   13.90    3.83   0.000   0.200   0.000    0.00
  15.100   12.29   14.26    3.91   0.000   0.200   0.000    0.00
  15.150   12.13   14.67    3.85   0.000   0.200   0.000    0.00
  15.200   11.95   12.75    3.81   0.000   0.200   0.000    0.00
  15.250   12.55   10.36    2.88   0.000   0.200   0.000    0.00
  15.300   12.72   13.59    2.64   0.000   0.200   0.000    0.00
  15.350   12.57   11.49    3.45   0.000   0.200   0.000    0.00
  15.400   14.69   12.54    3.21   0.000   0.200   0.000    0.00
  15.450   14.82   13.23    4.08   0.000   0.200   0.000    0.00
  15.500   14.09   15.28    3.89   0.000   0.200   0.000    0.00
  15.550   14.56   14.14    4.63   0.000   0.200   0.000    0.00
  15.600   13.53    7.78    4.68   0.000   0.200   0.000    0.00
  15.650   13.99    2.26    5.10   0.000   0.200   0.000    0.00
  15.700   13.37   -1.14    5.18   0.000   0.200   0.000    0.00
  15.750   13.10   -2.49    5.92   0.000   0.200   0.000    0.00
  15.800   12.74    1.22    6.48   0.000   0.200   0.000    0.00
  15.850   12.55   -2.22    7.07   0.000   0.200   0.000    0.00
  15.900   11.95    2.08    6.62   0.000   0.200   0.000    0.00
  15.950   12.39   -3.49    4.86   0.000   0.200   0.000    0.00
  16.000   12.24   -4.52    5.15   0.000   0.200   0.000    0.00
  16.050   13.81   -3.34    4.87   0.000   0.200   0.000    0.00
  16.100   14.19   -4.25    5.01   0.000   0.200   0.000    0.00
  16.150   15.53   -8.29    3.59   0.000   0.200   0.000    0.00
  16.200   16.61   -6.61    4.11   0.000   0.200   0.000    0.00
  16.250   17.26   -8.25    5.90   0.000   0.200   0.000    0.00
  16.300   17.02   -6.66    6.31   0.000   0.200   0.000    0.00
  16.350   18.06   -6.23    4.86   0.000   0.200   0.000    0.00
  16.400   18.13   -4.61    4.60   0.000   0.200   0.000    0.00
  16.450   17.91   -2.11    3.35   0.000   0.200   0.000    0.00
  16.500   17.75   -0.30    3.21   0.000   0.200   0.000    0.00
  16.550   16.76   -0.41    3.85   0.000   0.200   0.000    0.00
  16.600   16.82   -1.96    3.89   0.000   0.200   0.000    0.00
  16.650   18.35   -0.01    3.91   0.000   0.200   0.000    0.00
  16.700   17.90    5.10    4.28   0.000   0.200   0.000    0.00
  16.750   19.09    7.91    4.60   0.000   0.200   0.000    0.00
  16.800   18.78    6.89    3.77   0.000   0.200   0.000    0.00
  16.850   16.98    8.19    3.18   0.000   0.200   0.000    0.00
  16.900   16.65    5.69    3.80   0.000   0.200   0.000    0.00
  16.950   16.32    3.44    4.62   0.000   0.200   0.000    0.00
  17.000   16.21    3.61    3.79   0.000   0.200   0.000    0.00
  17.050   17.12    2.76    3.17   0.000   0.200   0.000    0.00
  17.100   16.67    3.96    3.40   0.000   0.200   0.000    0.00
  17.150   16.01    2.99    3.36   0.000   0.200   0.000    0.00
  17.200   16.01   -0.78    3.44   0.000   0.200   0.000    0.00
  17.250   15.54   -2.49    3.67   0.000   0.200   0.000    0.00
  17.300   16.28   -3.91    3.18   0.000   0.200   0.000    0.00
  17.350   15.38   -5.17    3.03   0.000   0.200   0.000    0.00
  17.400   14.60   -3.77    2.03   0.000   0.200   0.000    0.00
  17.450   14.21   -0.97    2.98   0.000   0.200   0.000    0.00
  17.500   15.20   -0.54    2.68   0.000   0.200   0.000    0.00
  17.550   14.95    2.66    1.64   0.000   0.200   0.000    0.00
  17.600   14.42    0.71    2.97   0.000   0.200   0.000    0.00
  17.650   13.95    0.68    2.59   0.000   0.200   0.000    0.00
  17.700   13.81    1.11    1.99   0.000   0.200   0.000    0.00
  17.750   12.87    5.09    1.23   0.000   0.200   0.000    0.00
  17.800   12.78    4.77    1.30   0.000   0.200   0.000    0.00
  17.850   13.02    2.35    1.91   0.000   0.200   0.000    0.00
  17.900   12.79   -0.04    1.92   0.000   0.200   0.000    0.00
  17.950   13.29    0.74    1.06   0.000   0.200   0.000    0.00
  18.000   14.24    0.75    0.57   0.000   0.200   0.000    0.00
  18.050   14.34    3.74    0.75   0.000   0.200   0.000    0.00
  18.100   13.94    0.05    1.27   0.000   0.200   0.000    0.00
  18.150   14.67   -1.62    0.90   0.000   0.200   0.000    0.00
  18.200   13.92    0.60    0.68   0.000   0.200   0.000    0.00
  18.250   14.71    1.67    0.21   0.000   0.200   0.000    0.00
  18.300   13.84    3.54    0.92   0.000   0.200   0.000    0.00
  18.350   13.41    1.11   -0.22   0.000   0.200   0.000    0.00
  18.400   13.90    5.41   -0.91   0.000   0.200   0.000    0.00
  18.450   12.99    3.93   -0.44   0.000   0.200   0.000    0.00
  18.500   12.69    7.61    0.52   0.000   0.200   0.000    0.00
  18.550   13.19    6.94    0.80   0.000   0.200   0.000    0.00
  18.600   13.53    4.48    1.61   0.000   0.200   0.000    0.00
  18.650   12.86    2.96    1.18   0.000   0.200   0.000    0.00
  18.700   12.87    0.98    1.16   0.000   0.200   0.000    0.00
  18.750   14.30    1.49   -0.39   0.000   0.200   0.000    0.00
  18.800   14.65    0.33   -1.07   0.000   0.200   0.000    0.00
  18.850   14.85    4.93   -0.29   0.000   0.200   0.000    0.00
  18.900   14.33    6.31    0.64   0.000   0.200   0.000    0.00
  18.950   13.81    6.50    1.27   0.000   0.200   0.000    0.00
  19.000   14.71    5.38    0.39   0.000   0.200   0.000    0.00
  19.050   14.07    3.12    0.66   0.000   0.200   0.000    0.00
  19.100   14.25    3.17    0.42   0.000   0.200   0.000    0.00
  19.150   13.63    3.68    0.49   0.000   0.200   0.000    0.00
  19.200   14.08    2.63    1.77   0.000   0.200   0.000    0.00
  19.250   14.25    4.12    1.10   0.000   0.200   0.000    0.00
  19.300   14.22   -0.38    1.05   0.000   0.200   0.000    0.00
  19.350   14.74   -1.40    1.07   0.000   0.200   0.000    0.00
  19.400   16.34    1.99   -0.48   0.000   0.200   0.000    0.00
  19.450   16.16   -3.32   -0.98   0.000   0.200   0.000    0.00
  19.500   15.51   -6.49   -0.82   0.000   0.200   0.000    0.00
  19.550   15.63   -6.49   -0.76   0.000   0.200   0.000    0.00
  19.600   15.53   -8.91    0.67   0.000   0.200   0.000    0.00
  19.650   15.11   -9.70    1.22   0.000   0.200   0.000    0.00
  19.700   14.27   -3.21    2.01   0.000   0.200   0.000    0.00
  19.750   14.86   -5.44    1.80   0.000   0.200   0.000    0.00
  19.800   14.59   -2.58    1.30   0.000   0.200   0.000    0.00
  19.850   14.01   -5.59    1.43   0.000   0.200   0.000    0.00
  19.900   14.34   -2.80   -0.36   0.000   0.200   0.000    0.00
  19.950   14.38   -3.08   -0.54   0.000   0.200   0.000    0.00
  20.000   13.77   -4.51   -0.23   0.000   0.200   0.000    0.00
  20.050   14.35   -4.46    0.09   0.000   0.200   0.000    0.00
  20.100   14.43   -6.63    1.12   0.000   0.200   0.000    0.00
  20.150   14.59   -6.61    1.18   0.000   0.200   0.000    0.00
  20.200   15.27   -7.82    1.31   0.000   0.200   0.000    0.00
  20.250   14.80   -9.12    2.52   0.000   0.200   0.000    0.00
  20.300   14.47   -5.07    1.24   0.000   0.200   0.000    0.00
  20.350   14.64   -2.57    1.28   0.000   0.200   0.000    0.00
  20.400   15.20   -4.14    2.30   0.000   0.200   0.000    0.00
  20.450   14.90   -8.63    1.65   0.000   0.200   0.000    0.00
  20.500   15.62   -8.66    1.64   0.000   0.200   0.000    0.00
  20.550   15.16  -10.04    2.85   0.000   0.200   0.000    0.00
  20.600   14.92   -7.53    4.21   0.000   0.200   0.000    0.00
  20.650   15.12  -10.08    4.01   0.000   0.200   0.000    0.00
  20.700   14.18  -11.67    3.84   0.000   0.200   0.000    0.00
  20.750   14.00  -12.48    3.57   0.000   0.200   0.000    0.00
  20.800   14.35   -9.57    3.32   0.000   0.200   0.000    0.00
  20.850   14.62   -7.76    3.14   0.000   0.200   0.000    0.00
  20.900   15.11  -11.15    3.05   0.000   0.200   0.000    0.00
  20.950   16.12   -9.33    4.50   0.000   0.200   0.000    0.00
  21.000   15.00   -6.58    4.99   0.000   0.200   0.000    0.00
  21.050   14.22   -2.92    4.99   0.000   0.200   0.000    0.00
  21.100   13.51   -2.33    4.52   0.000   0.200   0.000    0.00
  21.150   13.61   -0.11    5.06   0.000   0.200   0.000    0.00
  21.200   13.88   -2.95    4.89   0.000   0.200   0.000    0.00
  21.250   12.75   -1.15    5.45   0.000   0.200   0.000    0.00
  21.300   13.17   -2.00    5.74   0.000   0.200   0.000    0.00
  21.350   13.59   -1.26    5.73   0.000   0.200   0.000    0.00
  21.400   13.26    1.47    4.35   0.000   0.200   0.000    0.00
  21.450   13.09   -0.54    4.22   0.000   0.200   0.000    0.00
  21.500   13.12   -0.76    2.93   0.000   0.200   0.000    0.00
  21.550   13.31   -5.39    3.25   0.000   0.200   0.000    0.00
  21.600   14.03   -3.19    3.10   0.000   0.200   0.000    0.00
  21.650   14.09   -2.56    4.15   0.000   0.200   0.000    0.00
  21.700   14.28    0.04    4.09   0.000   0.200   0.000    0.00
  21.750   15.01   -0.13    3.20   0.000   0.200   0.000    0.00
  21.800   14.43   -0.43    2.21   0.000   0.200   0.000    0.00
  21.850   14.45   -2.28    2.40   0.000   0.200   0.000    0.00
  21.900   14.63    0.09    3.15   0.000   0.200   0.000    0.00
  21.950   15.36   -1.39    3.63   0.000   0.200   0.000    0.00
  22.000   15.20    1.86    3.45   0.000   0.200   0.000    0.00
  22.050   15.16   -1.16    2.80   0.000   0.200   0.000    0.00
  22.100   14.84   -0.17    2.67   0.000   0.200   0.000    0.00
  22.150   14.82   -0.49    3.26   0.000   0.200   0.000    0.00
  22.200   14.60    1.27    3.17   0.000   0.200   0.000    0.00
  22.250   15.94   -2.18    2.50   0.000   0.200   0.000    0.00
  22.300   14.83    0.26    3.13   0.000   0.200   0.000    0.00
  22.350   15.16   -0.02    3.25   0.000   0.200   0.000    0.00