! This hub-height wind-speed file was generated by TurbSim (v1.06.00, 21-Sep-2012) on 16-Jun-2018 at 18:39:09.
!
! The requested statistics for this data were:
!    Mean Total Wind Speed =   17.000 m/s
!    Turbulence Intensity  =   20.740%
!
!   Time  HorSpd  WndDir  VerSpd  HorShr  VerShr  LnVShr  GstSpd
!  (sec)   (m/s)   (deg)   (m/s)     (-)     (-)     (-)   (m/s)
   0.000   17.79   16.27    0.26   0.000   0.200   0.000    0.00
   0.050   18.46   18.59   -0.08   0.000   0.200   0.000    0.00
   0.100   18.47   17.11    0.88   0.000   0.200   0.000    0.00
   0.150   18.56   17.85    0.05   0.000   0.200   0.000    0.00
   0.200   17.36   18.96    0.08   0.000   0.200   0.000    0.00
   0.250   17.60   20.13   -0.48   0.000   0.200   0.000    0.00
   0.300   18.00   16.74   -0.64   0.000   0.200   0.000    0.00
   0.350   18.88   14.39   -0.25   0.000   0.200   0.000    0.00
   0.400   18.10   13.31   -0.78   0.000   0.200   0.000    0.00
   0.450   17.99   14.61   -0.37   0.000   0.200   0.000    0.00
   0.500   18.44   10.50   -0.86   0.000   0.200   0.000    0.00
   0.550   18.51   11.82   -1.21   0.000   0.200   0.000    0.00
   0.600   18.47   14.86   -0.90   0.000   0.200   0.000    0.00
   0.650   18.42   14.69   -1.01   0.000   0.200   0.000    0.00
   0.700   18.58   12.29   -1.84   0.000   0.200   0.000    0.00
   0.750   19.05   12.17   -1.69   0.000   0.200   0.000    0.00
   0.800   19.61   13.60   -0.96   0.000   0.200   0.000    0.00
   0.850   19.42   14.55   -1.15   0.000   0.200   0.000    0.00
   0.900   20.25   15.89   -0.57   0.000   0.200   0.000    0.00
   0.950   19.51   18.01   -1.75   0.000   0.200   0.000    0.00
   1.000   19.25   19.54   -2.20   0.000   0.200   0.000    0.00
   1.050   20.39   16.35   -2.50   0.000   0.200   0.000    0.00
   1.100   19.72   11.95   -3.10   0.000   0.200   0.000    0.00
   1.150   21.10   11.80   -2.81   0.000   0.200   0.000    0.00
   1.200   20.62   10.67   -1.98   0.000   0.200   0.000    0.00
   1.250   20.53    8.13   -0.47   0.000   0.200   0.000    0.00
   1.300   20.35   10.04   -0.05   0.000   0.200   0.000    0.00
   1.350   20.60    7.89   -1.04   0.000   0.200   0.000    0.00
   1.400   20.60   10.86   -1.29   0.000   0.200   0.000    0.00
   1.450   19.53   13.81   -0.73   0.000   0.200   0.000    0.00
   1.500   20.10   13.70    0.41   0.000   0.200   0.000    0.00
   1.550   20.03   13.73   -0.14   0.000   0.200   0.000    0.00
   1.600   20.09   15.71    0.73   0.000   0.200   0.000    0.00
   1.650   19.48   14.27    1.05   0.000   0.200   0.000    0.00
   1.700   19.36   17.52    0.20   0.000   0.200   0.000    0.00
   1.750   18.27   15.02    0.44   0.000   0.200   0.000    0.00
   1.800   17.88   15.35   -0.12   0.000   0.200   0.000    0.00
   1.850   17.59   13.21    0.66   0.000   0.200   0.000    0.00
   1.900   16.43   11.95    0.73   0.000   0.200   0.000    0.00
   1.950   15.50   14.10    0.30   0.000   0.200   0.000    0.00
   2.000   15.10   14.94    0.53   0.000   0.200   0.000    0.00
   2.050   14.94   18.35    1.38   0.000   0.200   0.000    0.00
   2.100   16.10   10.05    1.07   0.000   0.200   0.000    0.00
   2.150   16.17    9.71    0.37   0.000   0.200   0.000    0.00
   2.200   16.18    4.07   -0.15   0.000   0.200   0.000    0.00
   2.250   16.04    3.24   -1.51   0.000   0.200   0.000    0.00
   2.300   16.66    2.04   -0.79   0.000   0.200   0.000    0.00
   2.350   15.90   -1.57   -1.01   0.000   0.200   0.000    0.00
   2.400   15.00    1.29   -1.46   0.000   0.200   0.000    0.00
   2.450   14.85    8.61   -1.11   0.000   0.200   0.000    0.00
   2.500   14.92    9.46    0.33   0.000   0.200   0.000    0.00
   2.550   14.42    7.10   -0.30   0.000   0.200   0.000    0.00
   2.600   13.92    4.16   -1.93   0.000   0.200   0.000    0.00
   2.650   15.22    6.31   -2.17   0.000   0.200   0.000    0.00
   2.700   16.50    5.17   -2.24   0.000   0.200   0.000    0.00
   2.750   17.12    9.60   -2.10   0.000   0.200   0.000    0.00
   2.800   16.58    7.76   -3.03   0.000   0.200   0.000    0.00
   2.850   16.40    8.11   -3.23   0.000   0.200   0.000    0.00
   2.900   16.86    4.50   -3.97   0.000   0.200   0.000    0.00
   2.950   17.31    1.32   -3.45   0.000   0.200   0.000    0.00
   3.000   17.01    3.05   -3.84   0.000   0.200   0.000    0.00
   3.050   16.33   -2.90   -4.04   0.000   0.200   0.000    0.00
   3.100   16.88   -4.19   -3.29   0.000   0.200   0.000    0.00
   3.150   15.70   -3.07   -3.98   0.000   0.200   0.000    0.00
   3.200   14.89   -4.97   -4.65   0.000   0.200   0.000    0.00
   3.250   14.84   -4.43   -5.18   0.000   0.200   0.000    0.00
   3.300   15.12   -2.89   -6.62   0.000   0.200   0.000    0.00
   3.350   15.72   -4.65   -5.17   0.000   0.200   0.000    0.00
   3.400   15.02    0.03   -3.71   0.000   0.200   0.000    0.00
   3.450   15.71   -0.40   -2.65   0.000   0.200   0.000    0.00
   3.500   15.87   -1.95   -2.68   0.000   0.200   0.000    0.00
   3.550   15.27   -2.12   -3.35   0.000   0.200   0.000    0.00
   3.600   15.30   -4.26   -3.01   0.000   0.200   0.000    0.00
   3.650   16.08   -0.39   -2.97   0.000   0.200   0.000    0.00
   3.700   15.75   -5.67   -1.02   0.000   0.200   0.000    0.00
   3.750   15.76   -7.95   -0.73   0.000   0.200   0.000    0.00
   3.800   14.67   -3.64    0.80   0.000   0.200   0.000    0.00
   3.850   14.83   -4.91   -0.39   0.000   0.200   0.000    0.00
   3.900   14.86   -6.89   -1.19   0.000   0.200   0.000    0.00
   3.950   15.75   -9.53   -1.34   0.000   0.200   0.000    0.00
   4.000   15.38  -15.15   -0.50   0.000   0.200   0.000    0.00
   4.050   15.95  -19.17    0.51   0.000   0.200   0.000    0.00
   4.100   16.83  -20.62   -0.08   0.000   0.200   0.000    0.00
   4.150   16.13  -21.12    0.04   0.000   0.200   0.000    0.00
   4.200   16.83  -16.69    0.26   0.000   0.200   0.000    0.00
   4.250   17.17  -17.40    0.59   0.000   0.200   0.000    0.00
   4.300   17.49  -19.75    0.27   0.000   0.200   0.000    0.00
   4.350   17.24  -19.52    0.30   0.000   0.200   0.000    0.00
   4.400   16.42  -13.43    0.16   0.000   0.200   0.000    0.00
   4.450   15.80  -12.04    0.23   0.000   0.200   0.000    0.00
   4.500   15.64  -11.44   -0.01   0.000   0.200   0.000    0.00
   4.550   16.43  -13.89    0.71   0.000   0.200   0.000    0.00
   4.600   17.36  -12.64    2.15   0.000   0.200   0.000    0.00
   4.650   17.00  -12.97    1.72   0.000   0.200   0.000    0.00
   4.700   16.19  -10.62    2.42   0.000   0.200   0.000    0.00
   4.750   15.80   -5.74    2.68   0.000   0.200   0.000    0.00
   4.800   17.14   -3.52    3.04   0.000   0.200   0.000    0.00
   4.850   16.76   -6.13    3.32   0.000   0.200   0.000    0.00
   4.900   16.39   -3.87    3.26   0.000   0.200   0.000    0.00
   4.950   16.02   -3.03    2.62   0.000   0.200   0.000    0.00
   5.000   15.69   -0.16    2.71   0.000   0.200   0.000    0.00
   5.050   16.15   -2.00    2.28   0.000   0.200   0.000    0.00
   5.100   17.53   -1.62    1.68   0.000   0.200   0.000    0.00
   5.150   17.76   -4.05    1.62   0.000   0.200   0.000    0.00
   5.200   17.66   -4.54    2.45   0.000   0.200   0.000    0.00
   5.250   17.72    0.31    2.52   0.000   0.200   0.000    0.00
   5.300   17.81    1.23    3.05   0.000   0.200   0.000    0.00
   5.350   17.94    3.27    2.90   0.000   0.200   0.000    0.00
   5.400   18.28    3.37    1.22   0.000   0.200   0.000    0.00
   5.450   18.38    5.72    1.26   0.000   0.200   0.000    0.00
   5.500   18.13    5.02    0.80   0.000   0.200   0.000    0.00
   5.550   19.26    1.21    0.86   0.000   0.200   0.000    0.00
   5.600   19.64   -1.51    0.88   0.000   0.200   0.000    0.00
   5.650   18.76    4.15    0.64   0.000   0.200   0.000    0.00
   5.700   18.48    2.66    0.17   0.000   0.200   0.000    0.00
   5.750   17.44   -1.96    1.44   0.000   0.200   0.000    0.00
   5.800   17.05    2.61    0.59   0.000   0.200   0.000    0.00
   5.850   16.34    5.18    1.40   0.000   0.200   0.000    0.00
   5.900   15.94    2.34    2.30   0.000   0.200   0.000    0.00
   5.950   16.58    1.41    1.47   0.000   0.200   0.000    0.00
   6.000   16.14    5.59    2.01   0.000   0.200   0.000    0.00
   6.050   16.32    5.70    1.61   0.000   0.200   0.000    0.00
   6.100   16.41    7.91    1.58   0.000   0.200   0.000    0.00
   6.150   16.78   14.19    1.45   0.000   0.200   0.000    0.00
   6.200   17.23   13.04    1.67   0.000   0.200   0.000    0.00
   6.250   17.96   11.64    1.78   0.000   0.200   0.000    0.00
   6.300   17.34    7.57    1.00   0.000   0.200   0.000    0.00
   6.350   17.06    5.87    0.54   0.000   0.200   0.000    0.00
   6.400   17.90    4.93    0.84   0.000   0.200   0.000    0.00
   6.450   17.09    5.22    0.62   0.000   0.200   0.000    0.00
   6.500   17.31    7.52    1.15   0.000   0.200   0.000    0.00
   6.550   18.27   10.06    1.16   0.000   0.200   0.000    0.00
   6.600   17.85   10.58    1.88   0.000   0.200   0.000    0.00
   6.650   17.49   12.92    1.86   0.000   0.200   0.000    0.00
   6.700   17.96   11.94    1.34   0.000   0.200   0.000    0.00
   6.750   16.49    9.31    1.78   0.000   0.200   0.000    0.00
   6.800   16.29    4.88    1.50   0.000   0.200   0.000    0.00
   6.850   16.50    6.41    1.27   0.000   0.200   0.000    0.00
   6.900   16.07   12.59    0.90   0.000   0.200   0.000    0.00
   6.950   16.31    8.77    0.58   0.000   0.200   0.000    0.00
   7.000   15.33    9.02    1.11   0.000   0.200   0.000    0.00
   7.050   15.01    9.59    1.88   0.000   0.200   0.000    0.00
   7.100   15.86    8.92    1.87   0.000   0.200   0.000    0.00
   7.150   16.63    6.94    2.48   0.000   0.200   0.000    0.00
   7.200   16.07    4.29    1.68   0.000   0.200   0.000    0.00
   7.250   15.10    2.54    0.36   0.000   0.200   0.000    0.00
   7.300   16.09    2.05    0.19   0.000   0.200   0.000    0.00
   7.350   16.69   -0.80    0.56   0.000   0.200   0.000    0.00
   7.400   16.03    0.52    0.42   0.000   0.200   0.000    0.00
   7.450   14.81    3.52   -1.13   0.000   0.200   0.000    0.00
   7.500   14.32    6.01   -0.78   0.000   0.200   0.000    0.00
   7.550   15.02    2.28   -1.18   0.000   0.200   0.000    0.00
   7.600   16.02    3.55   -1.86   0.000   0.200   0.000    0.00
   7.650   16.00    2.19   -1.79   0.000   0.200   0.000    0.00
   7.700   16.31   -0.16   -0.52   0.000   0.200   0.000    0.00
   7.750   17.45    2.33    0.01   0.000   0.200   0.000    0.00
   7.800   16.84    4.52    0.82   0.000   0.200   0.000    0.00
   7.850   16.17    7.07    1.67   0.000   0.200   0.000    0.00
   7.900   17.12    8.09    2.05   0.000   0.200   0.000    0.00
   7.950   16.09    8.12    2.50   0.000   0.200   0.000    0.00
   8.000   15.34    8.07    2.95   0.000   0.200   0.000    0.00
   8.050   15.96    7.70    2.80   0.000   0.200   0.000    0.00
   8.100   15.99   10.24    2.10   0.000   0.200   0.000    0.00
   8.150   16.46   10.15    1.13   0.000   0.200   0.000    0.00
   8.200   15.68    4.62    0.95   0.000   0.200   0.000    0.00
   8.250   16.17    6.78    0.80   0.000   0.200   0.000    0.00
   8.300   15.83    5.87   -1.03   0.000   0.200   0.000    0.00
   8.350   16.47    2.63   -0.51   0.000   0.200   0.000    0.00
   8.400   17.20    5.11   -0.61   0.000   0.200   0.000    0.00
   8.450   17.19    5.40   -1.38   0.000   0.200   0.000    0.00
   8.500   16.73    0.77   -1.21   0.000   0.200   0.000    0.00
   8.550   17.10   -2.40   -0.30   0.000   0.200   0.000    0.00
   8.600   16.73   -1.67    0.22   0.000   0.200   0.000    0.00
   8.650   17.50    1.27    0.12   0.000   0.200   0.000    0.00
   8.700   17.73    1.44    0.24   0.000   0.200   0.000    0.00
   8.750   17.49    3.55    0.22   0.000   0.200   0.000    0.00
   8.800   17.52    4.32    0.68   0.000   0.200   0.000    0.00
   8.850   16.94    2.45   -0.11   0.000   0.200   0.000    0.00
   8.900   17.86    2.67    0.62   0.000   0.200   0.000    0.00
   8.950   18.51    8.57    0.64   0.000   0.200   0.000    0.00
   9.000   18.13    8.71   -1.40   0.000   0.200   0.000    0.00
   9.050   18.50    7.94   -1.44   0.000   0.200   0.000    0.00
   9.100   18.27    3.62   -0.33   0.000   0.200   0.000    0.00
   9.150   17.22    0.76   -0.61   0.000   0.200   0.000    0.00
   9.200   16.70    0.90   -1.16   0.000   0.200   0.000    0.00
   9.250   17.36    3.42   -1.20   0.000   0.200   0.000    0.00
   9.300   17.68    7.27   -0.89   0.000   0.200   0.000    0.00
   9.350   17.50    9.03   -2.10   0.000   0.200   0.000    0.00
   9.400   17.91    4.23   -0.96   0.000   0.200   0.000    0.00
   9.450   18.65    3.42    0.30   0.000   0.200   0.000    0.00
   9.500   18.99    2.87   -0.27   0.000   0.200   0.000    0.00
   9.550   18.87   -0.43   -1.24   0.000   0.200   0.000    0.00
   9.600   17.81    0.61   -2.59   0.000   0.200   0.000    0.00
   9.650   18.18   -0.01   -2.85   0.000   0.200   0.000    0.00
   9.700   18.22    3.17   -2.75   0.000   0.200   0.000    0.00
   9.750   18.05   -0.34   -2.24   0.000   0.200   0.000    0.00
   9.800   17.38    0.27   -2.65   0.000   0.200   0.000    0.00
   9.850   17.25   -1.25   -2.13   0.000   0.200   0.000    0.00
   9.900   17.32   -0.83   -2.38   0.000   0.200   0.000    0.00
   9.950   17.76   -1.16   -2.42   0.000   0.200   0.000    0.00
  10.000   17.46    2.07   -2.33   0.000   0.200   0.000    0.00
  10.050   16.53    3.94   -1.82   0.000   0.200   0.000    0.00
  10.100   16.50    5.26   -0.83   0.000   0.200   0.000    0.00
  10.150   16.14    4.80   -0.68   0.000   0.200   0.000    0.00
  10.200   16.36    4.51   -1.15   0.000   0.200   0.000    0.00
  10.250   16.50    1.31    0.47   0.000   0.200   0.000    0.00
  10.300   17.04    2.98    1.16   0.000   0.200   0.000    0.00
  10.350   16.91   -0.84    0.74   0.000   0.200   0.000    0.00
  10.400   17.34   -1.33    1.29   0.000   0.200   0.000    0.00
  10.450   18.21    1.82    1.55   0.000   0.200   0.000    0.00
  10.500   17.82    0.61    1.37   0.000   0.200   0.000    0.00
  10.550   17.30    1.15    0.52   0.000   0.200   0.000    0.00
  10.600   16.92   -0.67    0.61   0.000   0.200   0.000    0.00
  10.650   16.38   -2.47    0.80   0.000   0.200   0.000    0.00
  10.700   15.54   -0.70    0.05   0.000   0.200   0.000    0.00
  10.750   14.66    2.13   -0.11   0.000   0.200   0.000    0.00
  10.800   14.57    2.91    0.07   0.000   0.200   0.000    0.00
  10.850   15.80    4.85    0.81   0.000   0.200   0.000    0.00
  10.900   16.11    3.48    0.99   0.000   0.200   0.000    0.00
  10.950   15.71    0.64    1.27   0.000   0.200   0.000    0.00
  11.000   16.04    1.32    0.94   0.000   0.200   0.000    0.00
  11.050   17.15    2.38    1.37   0.000   0.200   0.000    0.00
  11.100   16.81   -0.62    0.63   0.000   0.200   0.000    0.00
  11.150   17.07   -1.06    0.97   0.000   0.200   0.000    0.00
  11.200   17.60   -2.47    1.03   0.000   0.200   0.000    0.00
  11.250   16.84   -0.15    0.54   0.000   0.200   0.000    0.00
  11.300   16.90    3.20   -0.30   0.000   0.200   0.000    0.00
  11.350   16.93    0.50   -0.71   0.000   0.200   0.000    0.00
  11.400   17.17   -0.69   -1.30   0.000   0.200   0.000    0.00
  11.450   17.39    2.02   -1.99   0.000   0.200   0.000    0.00
  11.500   17.41    6.84   -1.09   0.000   0.200   0.000    0.00
  11.550   18.72    8.51   -1.96   0.000   0.200   0.000    0.00
  11.600   19.20    8.27   -1.56   0.000   0.200   0.000    0.00
  11.650   19.38    6.29   -2.67   0.000   0.200   0.000    0.00
  11.700   19.58    5.76   -2.49   0.000   0.200   0.000    0.00
  11.750   19.52    7.84   -2.40   0.000   0.200   0.000    0.00
  11.800   19.70    5.43   -2.12   0.000   0.200   0.000    0.00
  11.850   19.65    2.18   -3.43   0.000   0.200   0.000    0.00
  11.900   20.17    2.35   -3.54   0.000   0.200   0.000    0.00
  11.950   20.51   -0.08   -3.15   0.000   0.200   0.000    0.00
  12.000   20.50    2.05   -3.78   0.000   0.200   0.000    0.00
  12.050   20.55    0.23   -3.42   0.000   0.200   0.000    0.00
  12.100   20.44    1.46   -2.90   0.000   0.200   0.000    0.00
  12.150   21.11    4.26   -2.38   0.000   0.200   0.000    0.00
  12.200   20.66    4.27   -1.78   0.000   0.200   0.000    0.00
  12.250   20.27    6.89   -1.08   0.000   0.200   0.000    0.00
  12.300   21.26    6.73   -1.24   0.000   0.200   0.000    0.00
  12.350   20.15    7.63   -2.32   0.000   0.200   0.000    0.00
  12.400   20.40   10.24   -2.21   0.000   0.200   0.000    0.00
  12.450   19.63    8.90   -1.89   0.000   0.200   0.000    0.00
  12.500   19.37    8.56   -2.38   0.000   0.200   0.000    0.00
  12.550   20.54   12.22   -2.09   0.000   0.200   0.000    0.00
  12.600   20.35   15.89   -3.18   0.000   0.200   0.000    0.00
  12.650   21.29   14.12   -3.61   0.000   0.200   0.000    0.00
  12.700   22.21   12.58   -3.92   0.000   0.200   0.000    0.00
  12.750   22.19   12.80   -2.98   0.000   0.200   0.000    0.00
  12.800   20.41    9.00   -3.18   0.000   0.200   0.000    0.00
  12.850   20.03   11.39   -2.57   0.000   0.200   0.000    0.00
  12.900   19.58   13.26   -1.72   0.000   0.200   0.000    0.00
  12.950   19.96   12.09   -1.64   0.000   0.200   0.000    0.00
  13.000   18.57   10.95   -2.48   0.000   0.200   0.000    0.00
  13.050   18.10    9.68   -0.50   0.000   0.200   0.000    0.00
  13.100   16.83    5.64   -0.40   0.000   0.200   0.000    0.00
  13.150   17.14    7.76   -0.47   0.000   0.200   0.000    0.00
  13.200   17.13   11.58   -1.80   0.000   0.200   0.000    0.00
  13.250   17.55   12.87   -1.91   0.000   0.200   0.000    0.00
  13.300   18.17   10.65   -2.06   0.000   0.200   0.000    0.00
  13.350   18.06   10.92   -1.60   0.000   0.200   0.000    0.00
  13.400   18.00    9.72   -1.99   0.000   0.200   0.000    0.00
  13.450   18.00    9.96   -1.54   0.000   0.200   0.000    0.00
  13.500   17.70   11.23   -0.97   0.000   0.200   0.000    0.00
  13.550   17.40   14.73   -0.35   0.000   0.200   0.000    0.00
  13.600   17.28   17.03    0.21   0.000   0.200   0.000    0.00
  13.650   17.80   15.67    0.14   0.000   0.200   0.000    0.00
  13.700   18.92   14.71    0.84   0.000   0.200   0.000    0.00
  13.750   18.65   12.34    0.66   0.000   0.200   0.000    0.00
  13.800   18.53   13.68    0.45   0.000   0.200   0.000    0.00
  13.850   18.92   12.12    0.20   0.000   0.200   0.000    0.00
  13.900   18.44   11.95    0.71   0.000   0.200   0.000    0.00
  13.950   16.88   12.06    0.89   0.000   0.200   0.000    0.00
  14.000   16.39    7.18    0.79   0.000   0.200   0.000    0.00
  14.050   16.84    9.96    0.06   0.000   0.200   0.000    0.00
  14.100   18.13   10.94   -0.84   0.000   0.200   0.000    0.00
  14.150   17.04    9.12   -0.51   0.000   0.200   0.000    0.00
  14.200   17.57    6.43   -1.15   0.000   0.200   0.000    0.00
  14.250   17.25    2.52   -2.41   0.000   0.200   0.000    0.00
  14.300   16.92    4.24   -1.80   0.000   0.200   0.000    0.00
  14.350   17.15    6.52   -2.01   0.000   0.200   0.000    0.00
  14.400   17.44    9.10   -1.72   0.000   0.200   0.000    0.00
  14.450   17.59    7.94   -2.21   0.000   0.200   0.000    0.00
  14.500   16.71    8.81   -3.10   0.000   0.200   0.000    0.00
  14.550   17.11    8.03   -2.15   0.000   0.200   0.000    0.00
  14.600   16.86    6.53   -2.14   0.000   0.200   0.000    0.00
  14.650   16.38    5.08   -1.18   0.000   0.200   0.000    0.00
  14.700   17.52    4.67   -1.38   0.000   0.200   0.000    0.00
  14.750   16.51    6.30   -1.84   0.000   0.200   0.000    0.00
  14.800   16.38    2.56   -2.16   0.000   0.200   0.000    0.00
  14.850   16.58    0.17   -2.17   0.000   0.200   0.000    0.00
  14.900   17.13    1.26   -2.80   0.000   0.200   0.000    0.00
  14.950   17.59    0.93   -2.41   0.000   0.200   0.000    0.00
  15.000   17.69    1.41   -3.41   0.000   0.200   0.000    0.00
  15.050   17.92    6.69   -3.32   0.000   0.200   0.000    0.00
  15.100   18.08    6.75   -2.59   0.000   0.200   0.000    0.00
  15.150   19.24    3.07   -1.76   0.000   0.200   0.000    0.00
  15.200   19.29    3.22   -1.63   0.000   0.200   0.000    0.00
  15.250   19.69    1.34   -1.02   0.000   0.200   0.000    0.00
  15.300   20.03    5.70   -0.98   0.000   0.200   0.000    0.00
  15.350   19.16    2.58   -0.81   0.000   0.200   0.000    0.00
  15.400   18.36   -2.32   -0.95   0.000   0.200   0.000    0.00
  15.450   18.82   -3.52    0.65   0.000   0.200   0.000    0.00
  15.500   18.95   -1.02    1.81   0.000   0.200   0.000    0.00
  15.550   19.41   -2.73    1.89   0.000   0.200   0.000    0.00
  15.600   19.05   -6.34    2.92   0.000   0.200   0.000    0.00
  15.650   19.79   -3.38    3.43   0.000   0.200   0.000    0.00
  15.700   21.28   -4.63    2.18   0.000   0.200   0.000    0.00
  15.750   21.44   -3.13    2.32   0.000   0.200   0.000    0.00
  15.800   20.96   -5.85    2.26   0.000   0.200   0.000    0.00
  15.850   21.09   -4.13    2.14   0.000   0.200   0.000    0.00
  15.900   19.01   -6.06    2.00   0.000   0.200   0.000    0.00
  15.950   18.32   -6.78    1.93   0.000   0.200   0.000    0.00
  16.000   18.73   -5.49    1.96   0.000   0.200   0.000    0.00
  16.050   18.90   -5.44    1.28   0.000   0.200   0.000    0.00
  16.100   19.28   -4.05    1.27   0.000   0.200   0.000    0.00
  16.150   20.02   -3.09    1.15   0.000   0.200   0.000    0.00
  16.200   20.23   -0.80    0.48   0.000   0.200   0.000    0.00
  16.250   20.42    2.54    2.30   0.000   0.200   0.000    0.00
  16.300   19.23    3.57    3.61   0.000   0.200   0.000    0.00
  16.350   19.82    3.92    4.49   0.000   0.200   0.000    0.00
  16.400   19.34    3.19    3.27   0.000   0.200   0.000    0.00
  16.450   19.93    3.84    3.32   0.000   0.200   0.000    0.00
  16.500   19.80    7.11    2.93   0.000   0.200   0.000    0.00
  16.550   19.61    5.11    1.14   0.000   0.200   0.000    0.00
  16.600   18.74    5.76    1.32   0.000   0.200   0.000    0.00
  16.650   19.53    6.88    0.57   0.000   0.200   0.000    0.00
  16.700   20.18    1.88    1.53   0.000   0.200   0.000    0.00
  16.750   20.07    0.29    0.92   0.000   0.200   0.000    0.00
  16.800   20.23    1.27    1.83   0.000   0.200   0.000    0.00
  16.850   20.84    3.05    1.20   0.000   0.200   0.000    0.00
  16.900   21.60    2.92    0.08   0.000   0.200   0.000    0.00
  16.950   21.46    1.12   -0.16   0.000   0.200   0.000    0.00
  17.000   20.72   -0.45    0.81   0.000   0.200   0.000    0.00
  17.050   20.05    0.65    1.11   0.000   0.200   0.000    0.00
  17.100   20.56    1.24   -0.46   0.000   0.200   0.000    0.00
  17.150   20.42    2.66   -1.13   0.000   0.200   0.000    0.00
  17.200   21.04    4.04   -1.92   0.000   0.200   0.000    0.00
  17.250   20.47    3.07   -2.00   0.000   0.200   0.000    0.00
  17.300   20.27    4.03   -1.55   0.000   0.200   0.000    0.00
  17.350   19.63    3.12   -1.21   0.000   0.200   0.000    0.00
  17.400   19.15    3.10   -1.21   0.000   0.200   0.000    0.00
  17.450   18.72   -1.66   -0.85   0.000   0.200   0.000    0.00
  17.500   19.34   -2.73   -0.93   0.000   0.200   0.000    0.00
  17.550   20.25    2.94   -0.55   0.000   0.200   0.000    0.00
  17.600   20.77    4.08    0.60   0.000   0.200   0.000    0.00
  17.650   20.58    1.59    0.52   0.000   0.200   0.000    0.00
  17.700   20.93    0.49    0.47   0.000   0.200   0.000    0.00
  17.750   19.53    4.50    0.50   0.000   0.200   0.000    0.00
  17.800   19.13    5.67    0.18   0.000   0.200   0.000    0.00
  17.850   19.67    5.50   -0.51   0.000   0.200   0.000    0.00
  17.900   19.23    4.06   -1.36   0.000   0.200   0.000    0.00
  17.950   18.88    3.15   -0.62   0.000   0.200   0.000    0.00
  18.000   18.98    3.59   -0.30   0.000   0.200   0.000    0.00
  18.050   18.68    3.46   -0.42   0.000   0.200   0.000    0.00
  18.100   19.29    3.79   -0.87   0.000   0.200   0.000    0.00
  18.150   18.65    5.74   -0.74   0.000   0.200   0.000    0.00
  18.200   18.81    3.74   -0.60   0.000   0.200   0.000    0.00
  18.250   18.88    7.24   -0.72   0.000   0.200   0.000    0.00
  18.300   18.48    8.16   -0.07   0.000   0.200   0.000    0.00
  18.350   19.47    5.96    0.12   0.000   0.200   0.000    0.00
  18.400   19.29    6.64    0.45   0.000   0.200   0.000    0.00
  18.450   18.96    5.32    1.71   0.000   0.200   0.000    0.00
  18.500   19.76    7.14    1.18   0.000   0.200   0.000    0.00
  18.550   20.78    4.37    0.32   0.000   0.200   0.000    0.00
  18.600   20.46    6.77    0.54   0.000   0.200   0.000    0.00
  18.650   20.46    5.22    1.19   0.000   0.200   0.000    0.00
  18.700   21.44    2.07    0.99   0.000   0.200   0.000    0.00
  18.750   21.29    0.42    0.48   0.000   0.200   0.000    0.00
  18.800   20.32    1.15    1.98   0.000   0.200   0.000    0.00
  18.850   20.08    4.59    2.68   0.000   0.200   0.000    0.00
  18.900   20.77    7.35    2.52   0.000   0.200   0.000    0.00
  18.950   20.57    5.47    2.52   0.000   0.200   0.000    0.00
  19.000   20.45    5.33    1.24   0.000   0.200   0.000    0.00
  19.050   20.04    5.59    2.97   0.000   0.200   0.000    0.00
  19.100   20.87    4.26    2.63   0.000   0.200   0.000    0.00
  19.150   20.61    7.10    2.05   0.000   0.200   0.000    0.00
  19.200   21.18    9.49    0.46   0.000   0.200   0.000    0.00
  19.250   20.77   10.69    0.17   0.000   0.200   0.000    0.00
  19.300   21.37   13.41    0.02   0.000   0.200   0.000    0.00
  19.350   22.72   12.58   -0.96   0.000   0.200   0.000    0.00
  19.400   22.28   10.55   -0.88   0.000   0.200   0.000    0.00
  19.450   22.14   10.23   -0.56   0.000   0.200   0.000    0.00
  19.500   21.13   12.21   -1.30   0.000   0.200   0.000    0.00
  19.550   20.60   10.81   -0.88   0.000   0.200   0.000    0.00
  19.600   20.07    9.94   -1.83   0.000   0.200   0.000    0.00
  19.650   20.43    7.86   -3.42   0.000   0.200   0.000    0.00
  19.700   19.91    7.65   -2.73   0.000   0.200   0.000    0.00
  19.750   19.72    6.58   -2.69   0.000   0.200   0.000    0.00
  19.800   20.66    8.35   -2.90   0.000   0.200   0.000    0.00
  19.850   20.86   10.12   -3.43   0.000   0.200   0.000    0.00
  19.900   21.37    8.78   -3.76   0.000   0.200   0.000    0.00
  19.950   22.25   11.52   -3.06   0.000   0.200   0.000    0.00
  20.000   21.55   12.66   -2.83   0.000   0.200   0.000    0.00
  20.050   21.36   12.27   -3.44   0.000   0.200   0.000    0.00
  20.100   21.07   14.01   -3.63   0.000   0.200   0.000    0.00
  20.150   20.83   10.28   -3.99   0.000   0.200   0.000    0.00
  20.200   20.43   10.82   -5.94   0.000   0.200   0.000    0.00
  20.250   21.29    9.98   -4.72   0.000   0.200   0.000    0.00
  20.300   21.46    5.61   -4.26   0.000   0.200   0.000    0.00
  20.350   21.83    5.66   -3.55   0.000   0.200   0.000    0.00
  20.400   23.35    8.11   -4.20   0.000   0.200   0.000    0.00
  20.450   23.60    9.52   -3.87   0.000   0.200   0.000    0.00
  20.500   22.67   10.89   -3.33   0.000   0.200   0.000    0.00
  20.550   22.55   11.15   -2.65   0.000   0.200   0.000    0.00
  20.600   22.20   10.13   -1.77   0.000   0.200   0.000    0.00
  20.650   22.19   11.58   -1.76   0.000   0.200   0.000    0.00
  20.700   22.35   14.51   -3.11   0.000   0.200   0.000    0.00
  20.750   21.30   14.44   -2.93   0.000   0.200   0.000    0.00
  20.800   20.73   11.81   -3.30   0.000   0.200   0.000    0.00
  20.850   20.66   10.63   -2.12   0.000   0.200   0.000    0.00
  20.900   21.52   10.32   -2.46   0.000   0.200   0.000    0.00
  20.950   22.42    9.33   -2.97   0.000   0.200   0.000    0.00
  21.000   22.29   12.01   -3.56   0.000   0.200   0.000    0.00
  21.050   21.49   11.12   -2.65   0.000   0.200   0.000    0.00
  21.100   21.31    8.93   -2.65   0.000   0.200   0.000    0.00
  21.150   21.53    8.12   -3.06   0.000   0.200   0.000    0.00
  21.200   22.80    8.68   -3.38   0.000   0.200   0.000    0.00
  21.250   23.70    9.35   -3.19   0.000   0.200   0.000    0.00
  21.300   23.83    6.10   -3.80   0.000   0.200   0.000    0.00
  21.350   23.63    6.29   -3.43   0.000   0.200   0.000    0.00
  21.400   22.24    9.50   -3.39   0.000   0.200   0.000    0.00
  21.450   22.95   10.69   -4.60   0.000   0.200   0.000    0.00
  21.500   24.10   12.39   -3.27   0.000   0.200   0.000    0.00
  21.550   23.74   10.66   -3.64   0.000   0.200   0.000    0.00
  21.600   24.63   12.81   -2.18   0.000   0.200   0.000    0.00
  21.650   24.82   10.29   -1.85   0.000   0.200   0.000    0.00
  21.700   24.49    8.84   -2.93   0.000   0.200   0.000    0.00
  21.750   24.87    6.79   -3.24   0.000   0.200   0.000    0.00
  21.800   24.97    7.62   -2.81   0.000   0.200   0.000    0.00
  21.850   23.81    6.92   -2.24   0.000   0.200   0.000    0.00
  21.900   23.29    7.45   -3.82   0.000   0.200   0.000    0.00
  21.950   22.92   10.46   -5.05   0.000   0.200   0.000    0.00
  22.000   22.66   12.34   -5.17   0.000   0.200   0.000    0.00
  22.050   22.32   13.21   -4.13   0.000   0.200   0.000    0.00
  22.100   22.41   15.70   -4.15   0.000   0.200   0.000    0.00
  22.150   22.27   17.02   -2.39   0.000   0.200   0.000    0.00
  22.200   21.99   15.68   -2.48   0.000   0.200   0.000    0.00
  22.250   21.18   13.73   -1.95   0.000   0.200   0.000    0.00
  22.300   21.05   13.02   -3.25   0.000   0.200   0.000    0.00
  22.350   20.86   13.97   -3.87   0.000   0.200   0.000    0.00