! This hub-height wind-speed file was generated by TurbSim (v1.06.00, 21-Sep-2012) on 16-Jun-2018 at 18:39:27.
!
! The requested statistics for this data were:
!    Mean Total Wind Speed =   21.000 m/s
!    Turbulence Intensity  =   18.325%
!
!   Time  HorSpd  WndDir  VerSpd  HorShr  VerShr  LnVShr  GstSpd
!  (sec)   (m/s)   (deg)   (m/s)     (-)     (-)     (-)   (m/s)
   0.000   21.91   14.14    0.25   0.000   0.200   0.000    0.00
   0.050   22.67   16.41   -0.13   0.000   0.200   0.000    0.00
   0.100   22.71   15.00    0.99   0.000   0.200   0.000    0.00
   0.150   22.82   15.72    0.03   0.000   0.200   0.000    0.00
   0.200   21.40   16.63    0.08   0.000   0.200   0.000    0.00
   0.250   21.65   17.77   -0.57   0.000   0.200   0.000    0.00
   0.300   22.17   14.62   -0.75   0.000   0.200   0.000    0.00
   0.350   23.23   12.48   -0.28   0.000   0.200   0.000    0.00
   0.400   22.32   11.39   -0.89   0.000   0.200   0.000    0.00
   0.450   22.16   12.63   -0.40   0.000   0.200   0.000    0.00
   0.500   22.73    8.78   -0.96   0.000   0.200   0.000    0.00
   0.550   22.78   10.05   -1.36   0.000   0.200   0.000    0.00
   0.600   22.69   12.95   -1.00   0.000   0.200   0.000    0.00
   0.650   22.61   12.80   -1.12   0.000   0.200   0.000    0.00
   0.700   22.81   10.54   -2.08   0.000   0.200   0.000    0.00
   0.750   23.34   10.47   -1.90   0.000   0.200   0.000    0.00
   0.800   23.97   11.90   -1.04   0.000   0.200   0.000    0.00
   0.850   23.72   12.81   -1.27   0.000   0.200   0.000    0.00
   0.900   24.65   14.18   -0.58   0.000   0.200   0.000    0.00
   0.950   23.74   16.16   -1.95   0.000   0.200   0.000    0.00
   1.000   23.40   17.62   -2.47   0.000   0.200   0.000    0.00
   1.050   24.77   14.66   -2.81   0.000   0.200   0.000    0.00
   1.100   24.03   10.40   -3.51   0.000   0.200   0.000    0.00
   1.150   25.64   10.37   -3.17   0.000   0.200   0.000    0.00
   1.200   25.08    9.26   -2.22   0.000   0.200   0.000    0.00
   1.250   24.99    6.83   -0.46   0.000   0.200   0.000    0.00
   1.300   24.76    8.66    0.03   0.000   0.200   0.000    0.00
   1.350   25.06    6.61   -1.14   0.000   0.200   0.000    0.00
   1.400   25.03    9.48   -1.43   0.000   0.200   0.000    0.00
   1.450   23.73   12.26   -0.78   0.000   0.200   0.000    0.00
   1.500   24.40   12.20    0.54   0.000   0.200   0.000    0.00
   1.550   24.30   12.24   -0.10   0.000   0.200   0.000    0.00
   1.600   24.33   14.16    0.90   0.000   0.200   0.000    0.00
   1.650   23.63   12.75    1.28   0.000   0.200   0.000    0.00
   1.700   23.44   15.90    0.28   0.000   0.200   0.000    0.00
   1.750   22.17   13.42    0.56   0.000   0.200   0.000    0.00
   1.800   21.69   13.73   -0.09   0.000   0.200   0.000    0.00
   1.850   21.37   11.66    0.82   0.000   0.200   0.000    0.00
   1.900   20.00   10.38    0.90   0.000   0.200   0.000    0.00
   1.950   18.88   12.38    0.40   0.000   0.200   0.000    0.00
   2.000   18.39   13.17    0.67   0.000   0.200   0.000    0.00
   2.050   18.15   16.46    1.67   0.000   0.200   0.000    0.00
   2.100   19.58    8.62    1.31   0.000   0.200   0.000    0.00
   2.150   19.66    8.33    0.51   0.000   0.200   0.000    0.00
   2.200   19.71    2.94   -0.09   0.000   0.200   0.000    0.00
   2.250   19.54    2.15   -1.67   0.000   0.200   0.000    0.00
   2.300   20.28    1.06   -0.81   0.000   0.200   0.000    0.00
   2.350   19.40   -2.44   -1.06   0.000   0.200   0.000    0.00
   2.400   18.33    0.27   -1.57   0.000   0.200   0.000    0.00
   2.450   18.11    7.28   -1.16   0.000   0.200   0.000    0.00
   2.500   18.18    8.12    0.52   0.000   0.200   0.000    0.00
   2.550   17.61    5.83   -0.20   0.000   0.200   0.000    0.00
   2.600   17.04    3.00   -2.09   0.000   0.200   0.000    0.00
   2.650   18.54    5.18   -2.35   0.000   0.200   0.000    0.00
   2.700   20.04    4.17   -2.42   0.000   0.200   0.000    0.00
   2.750   20.73    8.50   -2.24   0.000   0.200   0.000    0.00
   2.800   20.10    6.71   -3.32   0.000   0.200   0.000    0.00
   2.850   19.88    7.05   -3.54   0.000   0.200   0.000    0.00
   2.900   20.44    3.63   -4.40   0.000   0.200   0.000    0.00
   2.950   20.96    0.60   -3.78   0.000   0.200   0.000    0.00
   3.000   20.60    2.28   -4.23   0.000   0.200   0.000    0.00
   3.050   19.81   -3.47   -4.46   0.000   0.200   0.000    0.00
   3.100   20.45   -4.68   -3.58   0.000   0.200   0.000    0.00
   3.150   19.07   -3.62   -4.38   0.000   0.200   0.000    0.00
   3.200   18.11   -5.46   -5.16   0.000   0.200   0.000    0.00
   3.250   18.05   -4.93   -5.77   0.000   0.200   0.000    0.00
   3.300   18.35   -3.42   -7.46   0.000   0.200   0.000    0.00
   3.350   19.06   -5.09   -5.77   0.000   0.200   0.000    0.00
   3.400   18.21   -0.59   -4.08   0.000   0.200   0.000    0.00
   3.450   19.01   -0.96   -2.86   0.000   0.200   0.000    0.00
   3.500   19.18   -2.45   -2.92   0.000   0.200   0.000    0.00
   3.550   18.48   -2.61   -3.71   0.000   0.200   0.000    0.00
   3.600   18.50   -4.67   -3.33   0.000   0.200   0.000    0.00
   3.650   19.41   -0.88   -3.31   0.000   0.200   0.000    0.00
   3.700   19.03   -5.99   -1.04   0.000   0.200   0.000    0.00
   3.750   19.05   -8.18   -0.73   0.000   0.200   0.000    0.00
   3.800   17.76   -4.01    1.04   0.000   0.200   0.000    0.00
   3.850   17.95   -5.21   -0.36   0.000   0.200   0.000    0.00
   3.900   18.00   -7.10   -1.30   0.000   0.200   0.000    0.00
   3.950   19.05   -9.62   -1.50   0.000   0.200   0.000    0.00
   4.000   18.62  -15.03   -0.52   0.000   0.200   0.000    0.00
   4.050   19.29  -18.90    0.64   0.000   0.200   0.000    0.00
   4.100   20.33  -20.30   -0.05   0.000   0.200   0.000    0.00
   4.150   19.51  -20.75    0.07   0.000   0.200   0.000    0.00
   4.200   20.34  -16.46    0.31   0.000   0.200   0.000    0.00
   4.250   20.75  -17.14    0.69   0.000   0.200   0.000    0.00
   4.300   21.13  -19.42    0.31   0.000   0.200   0.000    0.00
   4.350   20.84  -19.19    0.33   0.000   0.200   0.000    0.00
   4.400   19.91  -13.29    0.15   0.000   0.200   0.000    0.00
   4.450   19.18  -11.94    0.22   0.000   0.200   0.000    0.00
   4.500   19.01  -11.37   -0.06   0.000   0.200   0.000    0.00
   4.550   19.94  -13.73    0.76   0.000   0.200   0.000    0.00
   4.600   21.05  -12.53    2.42   0.000   0.200   0.000    0.00
   4.650   20.64  -12.85    1.90   0.000   0.200   0.000    0.00
   4.700   19.69  -10.60    2.71   0.000   0.200   0.000    0.00
   4.750   19.24   -5.92    3.00   0.000   0.200   0.000    0.00
   4.800   20.82   -3.78    3.41   0.000   0.200   0.000    0.00
   4.850   20.37   -6.31    3.73   0.000   0.200   0.000    0.00
   4.900   19.94   -4.15    3.66   0.000   0.200   0.000    0.00
   4.950   19.51   -3.36    2.91   0.000   0.200   0.000    0.00
   5.000   19.11   -0.63    3.01   0.000   0.200   0.000    0.00
   5.050   19.66   -2.39    2.51   0.000   0.200   0.000    0.00
   5.100   21.27   -2.00    1.80   0.000   0.200   0.000    0.00
   5.150   21.54   -4.36    1.73   0.000   0.200   0.000    0.00
   5.200   21.42   -4.84    2.71   0.000   0.200   0.000    0.00
   5.250   21.48   -0.17    2.78   0.000   0.200   0.000    0.00
   5.300   21.58    0.71    3.41   0.000   0.200   0.000    0.00
   5.350   21.72    2.66    3.24   0.000   0.200   0.000    0.00
   5.400   22.13    2.76    1.28   0.000   0.200   0.000    0.00
   5.450   22.24    5.03    1.34   0.000   0.200   0.000    0.00
   5.500   21.95    4.33    0.80   0.000   0.200   0.000    0.00
   5.550   23.29    0.68    0.88   0.000   0.200   0.000    0.00
   5.600   23.75   -1.95    0.91   0.000   0.200   0.000    0.00
   5.650   22.70    3.49    0.62   0.000   0.200   0.000    0.00
   5.700   22.39    2.04    0.08   0.000   0.200   0.000    0.00
   5.750   21.19   -2.46    1.55   0.000   0.200   0.000    0.00
   5.800   20.73    1.92    0.55   0.000   0.200   0.000    0.00
   5.850   19.88    4.35    1.50   0.000   0.200   0.000    0.00
   5.900   19.43    1.59    2.55   0.000   0.200   0.000    0.00
   5.950   20.19    0.71    1.58   0.000   0.200   0.000    0.00
   6.000   19.66    4.70    2.21   0.000   0.200   0.000    0.00
   6.050   19.86    4.80    1.74   0.000   0.200   0.000    0.00
   6.100   19.94    6.92    1.71   0.000   0.200   0.000    0.00
   6.150   20.32   12.99    1.55   0.000   0.200   0.000    0.00
   6.200   20.84   11.92    1.82   0.000   0.200   0.000    0.00
   6.250   21.68   10.61    1.96   0.000   0.200   0.000    0.00
   6.300   20.97    6.64    1.04   0.000   0.200   0.000    0.00
   6.350   20.61    4.99    0.52   0.000   0.200   0.000    0.00
   6.400   21.57    4.12    0.87   0.000   0.200   0.000    0.00
   6.450   20.61    4.36    0.61   0.000   0.200   0.000    0.00
   6.500   20.82    6.61    1.22   0.000   0.200   0.000    0.00
   6.550   21.91    9.13    1.24   0.000   0.200   0.000    0.00
   6.600   21.39    9.63    2.07   0.000   0.200   0.000    0.00
   6.650   20.93   11.91    2.05   0.000   0.200   0.000    0.00
   6.700   21.46   10.98    1.44   0.000   0.200   0.000    0.00
   6.750   19.75    8.34    1.96   0.000   0.200   0.000    0.00
   6.800   19.53    4.01    1.63   0.000   0.200   0.000    0.00
   6.850   19.75    5.52    1.37   0.000   0.200   0.000    0.00
   6.900   19.20   11.55    0.94   0.000   0.200   0.000    0.00
   6.950   19.49    7.82    0.58   0.000   0.200   0.000    0.00
   7.000   18.33    8.02    1.19   0.000   0.200   0.000    0.00
   7.050   17.94    8.57    2.09   0.000   0.200   0.000    0.00
   7.100   18.92    7.97    2.09   0.000   0.200   0.000    0.00
   7.150   19.83    6.08    2.80   0.000   0.200   0.000    0.00
   7.200   19.16    3.47    1.87   0.000   0.200   0.000    0.00
   7.250   18.03    1.71    0.34   0.000   0.200   0.000    0.00
   7.300   19.18    1.29    0.15   0.000   0.200   0.000    0.00
   7.350   19.88   -1.48    0.60   0.000   0.200   0.000    0.00
   7.400   19.09   -0.21    0.45   0.000   0.200   0.000    0.00
   7.450   17.64    2.68   -1.36   0.000   0.200   0.000    0.00
   7.500   17.05    5.10   -0.94   0.000   0.200   0.000    0.00
   7.550   17.87    1.47   -1.40   0.000   0.200   0.000    0.00
   7.600   19.03    2.77   -2.19   0.000   0.200   0.000    0.00
   7.650   19.01    1.43   -2.11   0.000   0.200   0.000    0.00
   7.700   19.38   -0.87   -0.64   0.000   0.200   0.000    0.00
   7.750   20.69    1.63   -0.03   0.000   0.200   0.000    0.00
   7.800   19.97    3.76    0.91   0.000   0.200   0.000    0.00
   7.850   19.17    6.24    1.89   0.000   0.200   0.000    0.00
   7.900   20.29    7.29    2.33   0.000   0.200   0.000    0.00
   7.950   19.08    7.26    2.85   0.000   0.200   0.000    0.00
   8.000   18.21    7.17    3.38   0.000   0.200   0.000    0.00
   8.050   18.95    6.82    3.21   0.000   0.200   0.000    0.00
   8.100   18.99    9.33    2.39   0.000   0.200   0.000    0.00
   8.150   19.55    9.26    1.27   0.000   0.200   0.000    0.00
   8.200   18.69    3.78    1.07   0.000   0.200   0.000    0.00
   8.250   19.26    5.93    0.91   0.000   0.200   0.000    0.00
   8.300   18.90    5.02   -1.21   0.000   0.200   0.000    0.00
   8.350   19.67    1.88   -0.59   0.000   0.200   0.000    0.00
   8.400   20.55    4.34   -0.70   0.000   0.200   0.000    0.00
   8.450   20.55    4.61   -1.59   0.000   0.200   0.000    0.00
   8.500   20.06    0.08   -1.39   0.000   0.200   0.000    0.00
   8.550   20.54   -3.00   -0.33   0.000   0.200   0.000    0.00
   8.600   20.12   -2.29    0.28   0.000   0.200   0.000    0.00
   8.650   21.03    0.60    0.16   0.000   0.200   0.000    0.00
   8.700   21.31    0.77    0.31   0.000   0.200   0.000    0.00
   8.750   21.04    2.81    0.28   0.000   0.200   0.000    0.00
   8.800   21.08    3.56    0.82   0.000   0.200   0.000    0.00
   8.850   20.43    1.71   -0.09   0.000   0.200   0.000    0.00
   8.900   21.51    1.96    0.76   0.000   0.200   0.000    0.00
   8.950   22.25    7.71    0.79   0.000   0.200   0.000    0.00
   9.000   21.81    7.83   -1.57   0.000   0.200   0.000    0.00
   9.050   22.26    7.10   -1.61   0.000   0.200   0.000    0.00
   9.100   22.02    2.90   -0.31   0.000   0.200   0.000    0.00
   9.150   20.81    0.09   -0.63   0.000   0.200   0.000    0.00
   9.200   20.21    0.20   -1.27   0.000   0.200   0.000    0.00
   9.250   20.98    2.67   -1.31   0.000   0.200   0.000    0.00
   9.300   21.35    6.41   -0.94   0.000   0.200   0.000    0.00
   9.350   21.16    8.10   -2.35   0.000   0.200   0.000    0.00
   9.400   21.68    3.47   -1.02   0.000   0.200   0.000    0.00
   9.450   22.57    2.72    0.45   0.000   0.200   0.000    0.00
   9.500   22.99    2.20   -0.20   0.000   0.200   0.000    0.00
   9.550   22.90   -0.99   -1.32   0.000   0.200   0.000    0.00
   9.600   21.68   -0.01   -2.89   0.000   0.200   0.000    0.00
   9.650   22.14   -0.60   -3.19   0.000   0.200   0.000    0.00
   9.700   22.21    2.47   -3.06   0.000   0.200   0.000    0.00
   9.750   22.05   -0.91   -2.47   0.000   0.200   0.000    0.00
   9.800   21.30   -0.34   -2.95   0.000   0.200   0.000    0.00
   9.850   21.17   -1.79   -2.35   0.000   0.200   0.000    0.00
   9.900   21.28   -1.40   -2.63   0.000   0.200   0.000    0.00
   9.950   21.81   -1.70   -2.69   0.000   0.200   0.000    0.00
  10.000   21.46    1.37   -2.58   0.000   0.200   0.000    0.00
  10.050   20.39    3.10   -2.01   0.000   0.200   0.000    0.00
  10.100   20.35    4.35   -0.85   0.000   0.200   0.000    0.00
  10.150   19.94    3.88   -0.69   0.000   0.200   0.000    0.00
  10.200   20.20    3.62   -1.25   0.000   0.200   0.000    0.00
  10.250   20.38    0.60    0.62   0.000   0.200   0.000    0.00
  10.300   21.00    2.22    1.42   0.000   0.200   0.000    0.00
  10.350   20.85   -1.42    0.92   0.000   0.200   0.000    0.00
  10.400   21.34   -1.87    1.55   0.000   0.200   0.000    0.00
  10.450   22.34    1.16    1.85   0.000   0.200   0.000    0.00
  10.500   21.87   -0.01    1.64   0.000   0.200   0.000    0.00
  10.550   21.25    0.48    0.65   0.000   0.200   0.000    0.00
  10.600   20.79   -1.26    0.76   0.000   0.200   0.000    0.00
  10.650   20.15   -2.99    0.98   0.000   0.200   0.000    0.00
  10.700   19.14   -1.35    0.11   0.000   0.200   0.000    0.00
  10.750   18.08    1.29   -0.07   0.000   0.200   0.000    0.00
  10.800   17.96    2.02    0.13   0.000   0.200   0.000    0.00
  10.850   19.38    3.93    1.00   0.000   0.200   0.000    0.00
  10.900   19.73    2.64    1.21   0.000   0.200   0.000    0.00
  10.950   19.28   -0.09    1.54   0.000   0.200   0.000    0.00
  11.000   19.65    0.57    1.15   0.000   0.200   0.000    0.00
  11.050   20.95    1.63    1.67   0.000   0.200   0.000    0.00
  11.100   20.57   -1.26    0.80   0.000   0.200   0.000    0.00
  11.150   20.87   -1.67    1.21   0.000   0.200   0.000    0.00
  11.200   21.51   -3.01    1.29   0.000   0.200   0.000    0.00
  11.250   20.62   -0.82    0.73   0.000   0.200   0.000    0.00
  11.300   20.68    2.38   -0.24   0.000   0.200   0.000    0.00
  11.350   20.74   -0.21   -0.70   0.000   0.200   0.000    0.00
  11.400   21.04   -1.35   -1.37   0.000   0.200   0.000    0.00
  11.450   21.29    1.24   -2.16   0.000   0.200   0.000    0.00
  11.500   21.29    5.83   -1.10   0.000   0.200   0.000    0.00
  11.550   22.83    7.49   -2.10   0.000   0.200   0.000    0.00
  11.600   23.40    7.28   -1.62   0.000   0.200   0.000    0.00
  11.650   23.64    5.38   -2.91   0.000   0.200   0.000    0.00
  11.700   23.89    4.87   -2.70   0.000   0.200   0.000    0.00
  11.750   23.81    6.85   -2.58   0.000   0.200   0.000    0.00
  11.800   24.05    4.55   -2.24   0.000   0.200   0.000    0.00
  11.850   24.02    1.43   -3.76   0.000   0.200   0.000    0.00
  11.900   24.64    1.61   -3.89   0.000   0.200   0.000    0.00
  11.950   25.07   -0.71   -3.42   0.000   0.200   0.000    0.00
  12.000   25.05    1.32   -4.16   0.000   0.200   0.000    0.00
  12.050   25.13   -0.42   -3.74   0.000   0.200   0.000    0.00
  12.100   25.01    0.74   -3.13   0.000   0.200   0.000    0.00
  12.150   25.78    3.43   -2.53   0.000   0.200   0.000    0.00
  12.200   25.26    3.41   -1.83   0.000   0.200   0.000    0.00
  12.250   24.79    5.90   -1.02   0.000   0.200   0.000    0.00
  12.300   25.96    5.78   -1.20   0.000   0.200   0.000    0.00
  12.350   24.66    6.57   -2.46   0.000   0.200   0.000    0.00
  12.400   24.92    9.07   -2.33   0.000   0.200   0.000    0.00
  12.450   24.03    7.74   -1.95   0.000   0.200   0.000    0.00
  12.500   23.72    7.40   -2.53   0.000   0.200   0.000    0.00
  12.550   25.05   10.95   -2.19   0.000   0.200   0.000    0.00
  12.600   24.79   14.46   -3.45   0.000   0.200   0.000    0.00
  12.650   25.90   12.82   -3.95   0.000   0.200   0.000    0.00
  12.700   26.98   11.38   -4.32   0.000   0.200   0.000    0.00
  12.750   26.94   11.60   -3.23   0.000   0.200   0.000    0.00
  12.800   24.89    7.85   -3.47   0.000   0.200   0.000    0.00
  12.850   24.41   10.12   -2.76   0.000   0.200   0.000    0.00
  12.900   23.87   11.89   -1.77   0.000   0.200   0.000    0.00
  12.950   24.32   10.80   -1.70   0.000   0.200   0.000    0.00
  13.000   22.69    9.63   -2.69   0.000   0.200   0.000    0.00
  13.050   22.15    8.38   -0.37   0.000   0.200   0.000    0.00
  13.100   20.69    4.45   -0.27   0.000   0.200   0.000    0.00
  13.150   21.04    6.49   -0.35   0.000   0.200   0.000    0.00
  13.200   20.98   10.13   -1.91   0.000   0.200   0.000    0.00
  13.250   21.46   11.39   -2.03   0.000   0.200   0.000    0.00
  13.300   22.19    9.32   -2.21   0.000   0.200   0.000    0.00
  13.350   22.05    9.57   -1.69   0.000   0.200   0.000    0.00
  13.400   21.98    8.43   -2.15   0.000   0.200   0.000    0.00
  13.450   21.96    8.67   -1.63   0.000   0.200   0.000    0.00
  13.500   21.58    9.87   -0.97   0.000   0.200   0.000    0.00
  13.550   21.19   13.20   -0.26   0.000   0.200   0.000    0.00
  13.600   21.01   15.42    0.38   0.000   0.200   0.000    0.00
  13.650   21.61   14.16    0.29   0.000   0.200   0.000    0.00
  13.700   22.93   13.33    1.10   0.000   0.200   0.000    0.00
  13.750   22.62   11.03    0.89   0.000   0.200   0.000    0.00
  13.800   22.47   12.32    0.63   0.000   0.200   0.000    0.00
  13.850   22.94   10.85    0.35   0.000   0.200   0.000    0.00
  13.900   22.39   10.66    0.94   0.000   0.200   0.000    0.00
  13.950   20.55   10.67    1.15   0.000   0.200   0.000    0.00
  14.000   20.02    5.96    1.04   0.000   0.200   0.000    0.00
  14.050   20.53    8.67    0.19   0.000   0.200   0.000    0.00
  14.100   22.03    9.70   -0.84   0.000   0.200   0.000    0.00
  14.150   20.76    7.89   -0.46   0.000   0.200   0.000    0.00
  14.200   21.40    5.36   -1.19   0.000   0.200   0.000    0.00
  14.250   21.05    1.60   -2.65   0.000   0.200   0.000    0.00
  14.300   20.64    3.23   -1.94   0.000   0.200   0.000    0.00
  14.350   20.90    5.44   -2.18   0.000   0.200   0.000    0.00
  14.400   21.22    7.94   -1.84   0.000   0.200   0.000    0.00
  14.450   21.40    6.84   -2.41   0.000   0.200   0.000    0.00
  14.500   20.37    7.63   -3.44   0.000   0.200   0.000    0.00
  14.550   20.84    6.91   -2.33   0.000   0.200   0.000    0.00
  14.600   20.57    5.46   -2.33   0.000   0.200   0.000    0.00
  14.650   20.02    4.06   -1.21   0.000   0.200   0.000    0.00
  14.700   21.37    3.74   -1.45   0.000   0.200   0.000    0.00
  14.750   20.19    5.25   -1.98   0.000   0.200   0.000    0.00
  14.800   20.06    1.68   -2.35   0.000   0.200   0.000    0.00
  14.850   20.32   -0.59   -2.36   0.000   0.200   0.000    0.00
  14.900   20.96    0.48   -3.10   0.000   0.200   0.000    0.00
  14.950   21.50    0.20   -2.65   0.000   0.200   0.000    0.00
  15.000   21.62    0.67   -3.82   0.000   0.200   0.000    0.00
  15.050   21.88    5.73   -3.72   0.000   0.200   0.000    0.00
  15.100   22.06    5.81   -2.89   0.000   0.200   0.000    0.00
  15.150   23.44    2.33   -1.93   0.000   0.200   0.000    0.00
  15.200   23.49    2.48   -1.79   0.000   0.200   0.000    0.00
  15.250   23.98    0.69   -1.10   0.000   0.200   0.000    0.00
  15.300   24.34    4.91   -1.07   0.000   0.200   0.000    0.00
  15.350   23.34    1.89   -0.88   0.000   0.200   0.000    0.00
  15.400   22.41   -2.82   -1.07   0.000   0.200   0.000    0.00
  15.450   22.95   -3.95    0.77   0.000   0.200   0.000    0.00
  15.500   23.09   -1.54    2.11   0.000   0.200   0.000    0.00
  15.550   23.63   -3.17    2.19   0.000   0.200   0.000    0.00
  15.600   23.22   -6.63    3.36   0.000   0.200   0.000    0.00
  15.650   24.08   -3.77    3.95   0.000   0.200   0.000    0.00
  15.700   25.83   -4.95    2.49   0.000   0.200   0.000    0.00
  15.750   26.02   -3.49    2.65   0.000   0.200   0.000    0.00
  15.800   25.47   -6.12    2.57   0.000   0.200   0.000    0.00
  15.850   25.64   -4.45    2.42   0.000   0.200   0.000    0.00
  15.900   23.22   -6.34    2.26   0.000   0.200   0.000    0.00
  15.950   22.43   -7.04    2.18   0.000   0.200   0.000    0.00
  16.000   22.92   -5.79    2.21   0.000   0.200   0.000    0.00
  16.050   23.14   -5.75    1.41   0.000   0.200   0.000    0.00
  16.100   23.59   -4.41    1.40   0.000   0.200   0.000    0.00
  16.150   24.46   -3.49    1.26   0.000   0.200   0.000    0.00
  16.200   24.70   -1.30    0.47   0.000   0.200   0.000    0.00
  16.250   24.92    1.90    2.58   0.000   0.200   0.000    0.00
  16.300   23.52    2.83    4.11   0.000   0.200   0.000    0.00
  16.350   24.22    3.18    5.14   0.000   0.200   0.000    0.00
  16.400   23.66    2.46    3.71   0.000   0.200   0.000    0.00
  16.450   24.35    3.10    3.77   0.000   0.200   0.000    0.00
  16.500   24.18    6.21    3.33   0.000   0.200   0.000    0.00
  16.550   23.97    4.29    1.26   0.000   0.200   0.000    0.00
  16.600   22.94    4.87    1.47   0.000   0.200   0.000    0.00
  16.650   23.86    5.97    0.60   0.000   0.200   0.000    0.00
  16.700   24.65    1.22    1.73   0.000   0.200   0.000    0.00
  16.750   24.52   -0.31    1.03   0.000   0.200   0.000    0.00
  16.800   24.70    0.62    2.10   0.000   0.200   0.000    0.00
  16.850   25.41    2.36    1.37   0.000   0.200   0.000    0.00
  16.900   26.31    2.25    0.08   0.000   0.200   0.000    0.00
  16.950   26.15    0.52   -0.20   0.000   0.200   0.000    0.00
  17.000   25.29   -1.01    0.95   0.000   0.200   0.000    0.00
  17.050   24.50    0.02    1.31   0.000   0.200   0.000    0.00
  17.100   25.09    0.60   -0.52   0.000   0.200   0.000    0.00
  17.150   24.92    1.95   -1.28   0.000   0.200   0.000    0.00
  17.200   25.63    3.29   -2.19   0.000   0.200   0.000    0.00
  17.250   24.97    2.34   -2.28   0.000   0.200   0.000    0.00
  17.300   24.72    3.25   -1.75   0.000   0.200   0.000    0.00
  17.350   23.98    2.35   -1.35   0.000   0.200   0.000    0.00
  17.400   23.42    2.31   -1.35   0.000   0.200   0.000    0.00
  17.450   22.93   -2.26   -0.93   0.000   0.200   0.000    0.00
  17.500   23.65   -3.27   -1.03   0.000   0.200   0.000    0.00
  17.550   24.69    2.19   -0.58   0.000   0.200   0.000    0.00
  17.600   25.29    3.30    0.75   0.000   0.200   0.000    0.00
  17.650   25.08    0.89    0.66   0.000   0.200   0.000    0.00
  17.700   25.49   -0.16    0.60   0.000   0.200   0.000    0.00
  17.750   23.82    3.63    0.63   0.000   0.200   0.000    0.00
  17.800   23.33    4.73    0.27   0.000   0.200   0.000    0.00
  17.850   23.96    4.59   -0.53   0.000   0.200   0.000    0.00
  17.900   23.46    3.18   -1.53   0.000   0.200   0.000    0.00
  17.950   23.04    2.29   -0.66   0.000   0.200   0.000    0.00
  18.000   23.15    2.71   -0.29   0.000   0.200   0.000    0.00
  18.050   22.79    2.56   -0.43   0.000   0.200   0.000    0.00
  18.100   23.50    2.91   -0.95   0.000   0.200   0.000    0.00
  18.150   22.73    4.74   -0.80   0.000   0.200   0.000    0.00
  18.200   22.93    2.82   -0.63   0.000   0.200   0.000    0.00
  18.250   22.98    6.18   -0.78   0.000   0.200   0.000    0.00
  18.300   22.50    7.04   -0.03   0.000   0.200   0.000    0.00
  18.350   23.67    4.96    0.18   0.000   0.200   0.000    0.00
  18.400   23.45    5.61    0.56   0.000   0.200   0.000    0.00
  18.450   23.06    4.32    2.03   0.000   0.200   0.000    0.00
  18.500   23.98    6.11    1.40   0.000   0.200   0.000    0.00
  18.550   25.18    3.48    0.40   0.000   0.200   0.000    0.00
  18.600   24.78    5.78    0.66   0.000   0.200   0.000    0.00
  18.650   24.78    4.29    1.41   0.000   0.200   0.000    0.00
  18.700   25.95    1.28    1.17   0.000   0.200   0.000    0.00
  18.750   25.77   -0.33    0.58   0.000   0.200   0.000    0.00
  18.800   24.63    0.33    2.33   0.000   0.200   0.000    0.00
  18.850   24.32    3.64    3.15   0.000   0.200   0.000    0.00
  18.900   25.11    6.33    2.96   0.000   0.200   0.000    0.00
  18.950   24.88    4.49    2.97   0.000   0.200   0.000    0.00
  19.000   24.74    4.34    1.48   0.000   0.200   0.000    0.00
  19.050   24.25    4.57    3.50   0.000   0.200   0.000    0.00
  19.100   25.24    3.31    3.12   0.000   0.200   0.000    0.00
  19.150   24.92    6.03    2.45   0.000   0.200   0.000    0.00
  19.200   25.57    8.36    0.62   0.000   0.200   0.000    0.00
  19.250   25.08    9.49    0.31   0.000   0.200   0.000    0.00
  19.300   25.76   12.15    0.16   0.000   0.200   0.000    0.00
  19.350   27.35   11.40   -0.98   0.000   0.200   0.000    0.00
  19.400   26.85    9.41   -0.86   0.000   0.200   0.000    0.00
  19.450   26.69    9.09   -0.48   0.000   0.200   0.000    0.00
  19.500   25.49   10.95   -1.32   0.000   0.200   0.000    0.00
  19.550   24.88    9.56   -0.81   0.000   0.200   0.000    0.00
  19.600   24.27    8.68   -1.90   0.000   0.200   0.000    0.00
  19.650   24.71    6.69   -3.74   0.000   0.200   0.000    0.00
  19.700   24.10    6.45   -2.92   0.000   0.200   0.000    0.00
  19.750   23.89    5.40   -2.85   0.000   0.200   0.000    0.00
  19.800   24.98    7.16   -3.08   0.000   0.200   0.000    0.00
  19.850   25.19    8.88   -3.69   0.000   0.200   0.000    0.00
  19.900   25.80    7.60   -4.06   0.000   0.200   0.000    0.00
  19.950   26.80   10.31   -3.24   0.000   0.200   0.000    0.00
  20.000   25.96   11.37   -2.96   0.000   0.200   0.000    0.00
  20.050   25.74   10.97   -3.65   0.000   0.200   0.000    0.00
  20.100   25.37   12.64   -3.88   0.000   0.200   0.000    0.00
  20.150   25.13    9.01   -4.27   0.000   0.200   0.000    0.00
  20.200   24.64    9.52   -6.55   0.000   0.200   0.000    0.00
  20.250   25.65    8.75   -5.12   0.000   0.200   0.000    0.00
  20.300   25.87    4.52   -4.57   0.000   0.200   0.000    0.00
  20.350   26.29    4.59   -3.76   0.000   0.200   0.000    0.00
  20.400   28.03    7.04   -4.51   0.000   0.200   0.000    0.00
  20.450   28.30    8.42   -4.13   0.000   0.200   0.000    0.00
  20.500   27.18    9.71   -3.50   0.000   0.200   0.000    0.00
  20.550   27.02    9.97   -2.72   0.000   0.200   0.000    0.00
  20.600   26.61    8.95   -1.68   0.000   0.200   0.000    0.00
  20.650   26.56   10.37   -1.68   0.000   0.200   0.000    0.00
  20.700   26.71   13.25   -3.25   0.000   0.200   0.000    0.00
  20.750   25.46   13.12   -3.04   0.000   0.200   0.000    0.00
  20.800   24.81   10.52   -3.46   0.000   0.200   0.000    0.00
  20.850   24.72    9.37   -2.09   0.000   0.200   0.000    0.00
  20.900   25.71    9.12   -2.48   0.000   0.200   0.000    0.00
  20.950   26.75    8.20   -3.07   0.000   0.200   0.000    0.00
  21.000   26.56   10.83   -3.76   0.000   0.200   0.000    0.00
  21.050   25.62    9.92   -2.69   0.000   0.200   0.000    0.00
  21.100   25.41    7.77   -2.70   0.000   0.200   0.000    0.00
  21.150   25.66    6.99   -3.17   0.000   0.200   0.000    0.00
  21.200   27.13    7.60   -3.54   0.000   0.200   0.000    0.00
  21.250   28.15    8.31   -3.31   0.000   0.200   0.000    0.00
  21.300   28.30    5.12   -4.02   0.000   0.200   0.000    0.00
  21.350   28.04    5.30   -3.59   0.000   0.200   0.000    0.00
  21.400   26.37    8.40   -3.54   0.000   0.200   0.000    0.00
  21.450   27.17    9.61   -4.95   0.000   0.200   0.000    0.00
  21.500   28.49   11.34   -3.39   0.000   0.200   0.000    0.00
  21.550   28.05    9.62   -3.84   0.000   0.200   0.000    0.00
  21.600   29.05   11.80   -2.13   0.000   0.200   0.000    0.00
  21.650   29.28    9.30   -1.75   0.000   0.200   0.000    0.00
  21.700   28.90    7.86   -3.01   0.000   0.200   0.000    0.00
  21.750   29.36    5.85   -3.36   0.000   0.200   0.000    0.00
  21.800   29.46    6.67   -2.87   0.000   0.200   0.000    0.00
  21.850   28.11    5.93   -2.20   0.000   0.200   0.000    0.00
  21.900   27.50    6.43   -4.03   0.000   0.200   0.000    0.00
  21.950   27.04    9.39   -5.46   0.000   0.200   0.000    0.00
  22.000   26.72   11.23   -5.60   0.000   0.200   0.000    0.00
  22.050   26.32   12.06   -4.40   0.000   0.200   0.000    0.00
  22.100   26.41   14.52   -4.42   0.000   0.200   0.000    0.00
  22.150   26.26   15.82   -2.37   0.000   0.200   0.000    0.00
  22.200   25.95   14.46   -2.49   0.000   0.200   0.000    0.00
  22.250   25.03   12.47   -1.86   0.000   0.200   0.000    0.00
  22.300   24.90   11.76   -3.39   0.000   0.200   0.000    0.00
  22.350   24.69   12.68   -4.10   0.000   0.200   0.000    0.00