! This hub-height wind-speed file was generated by TurbSim (v1.06.00, 21-Sep-2012) on 03-Feb-2018 at 23:31:07.
!
! The requested statistics for this data were:
!    Mean Total Wind Speed =    7.000 m/s
!    Turbulence Intensity  =   38.848%
!
!   Time  HorSpd  WndDir  VerSpd  HorShr  VerShr  LnVShr  GstSpd
!  (sec)   (m/s)   (deg)   (m/s)     (-)     (-)     (-)   (m/s)
   0.000    5.27   11.30   -1.93   0.000   0.200   0.000    0.00
   0.050    4.93    5.08   -2.21   0.000   0.200   0.000    0.00
   0.100    5.54    9.22   -1.93   0.000   0.200   0.000    0.00
   0.150    5.66    6.50   -1.44   0.000   0.200   0.000    0.00
   0.200    5.98    7.22   -1.52   0.000   0.200   0.000    0.00
   0.250    5.88   10.28   -2.19   0.000   0.200   0.000    0.00
   0.300    5.04   16.97   -1.82   0.000   0.200   0.000    0.00
   0.350    4.66   11.00   -1.59   0.000   0.200   0.000    0.00
   0.400    4.49   19.00   -0.84   0.000   0.200   0.000    0.00
   0.450    4.57   24.74   -0.41   0.000   0.200   0.000    0.00
   0.500    4.62   20.24   -0.50   0.000   0.200   0.000    0.00
   0.550    4.91   16.63   -0.72   0.000   0.200   0.000    0.00
   0.600    4.91   12.11   -0.99   0.000   0.200   0.000    0.00
   0.650    4.68   10.56   -0.69   0.000   0.200   0.000    0.00
   0.700    4.77   10.25   -1.05   0.000   0.200   0.000    0.00
   0.750    4.57   13.25   -1.23   0.000   0.200   0.000    0.00
   0.800    4.14   17.28   -0.90   0.000   0.200   0.000    0.00
   0.850    3.53   23.47   -1.20   0.000   0.200   0.000    0.00
   0.900    4.08   21.26   -1.77   0.000   0.200   0.000    0.00
   0.950    4.49   28.66   -1.14   0.000   0.200   0.000    0.00
   1.000    4.16   23.31   -1.39   0.000   0.200   0.000    0.00
   1.050    3.77   20.05   -1.51   0.000   0.200   0.000    0.00
   1.100    4.49    7.06   -1.94   0.000   0.200   0.000    0.00
   1.150    4.18    3.60   -2.47   0.000   0.200   0.000    0.00
   1.200    4.24    4.83   -2.18   0.000   0.200   0.000    0.00
   1.250    4.59    4.28   -2.05   0.000   0.200   0.000    0.00
   1.300    5.21    8.33   -2.29   0.000   0.200   0.000    0.00
   1.350    5.71    8.73   -2.44   0.000   0.200   0.000    0.00
   1.400    5.87   10.61   -2.47   0.000   0.200   0.000    0.00
   1.450    4.94    6.77   -2.61   0.000   0.200   0.000    0.00
   1.500    5.25    1.13   -2.17   0.000   0.200   0.000    0.00
   1.550    4.83    7.08   -1.43   0.000   0.200   0.000    0.00
   1.600    5.00   13.48   -0.73   0.000   0.200   0.000    0.00
   1.650    4.62   -0.89   -0.55   0.000   0.200   0.000    0.00
   1.700    4.08    1.50   -0.41   0.000   0.200   0.000    0.00
   1.750    3.82   -6.01    0.29   0.000   0.200   0.000    0.00
   1.800    3.56  -11.99    0.15   0.000   0.200   0.000    0.00
   1.850    3.30   -0.58    1.04   0.000   0.200   0.000    0.00
   1.900    3.11  -16.60    0.33   0.000   0.200   0.000    0.00
   1.950    3.61  -18.89   -0.31   0.000   0.200   0.000    0.00
   2.000    3.60  -20.15   -0.37   0.000   0.200   0.000    0.00
   2.050    3.30  -13.88   -0.82   0.000   0.200   0.000    0.00
   2.100    3.43   -3.04   -0.93   0.000   0.200   0.000    0.00
   2.150    3.16    9.84   -0.96   0.000   0.200   0.000    0.00
   2.200    3.64    2.25   -0.75   0.000   0.200   0.000    0.00
   2.250    4.03   -7.40   -0.17   0.000   0.200   0.000    0.00
   2.300    3.97  -13.88    0.07   0.000   0.200   0.000    0.00
   2.350    4.74  -16.53   -0.14   0.000   0.200   0.000    0.00
   2.400    4.73  -23.39   -1.00   0.000   0.200   0.000    0.00
   2.450    4.58  -31.29   -0.82   0.000   0.200   0.000    0.00
   2.500    4.10  -18.04   -0.13   0.000   0.200   0.000    0.00
   2.550    4.01  -22.22   -0.40   0.000   0.200   0.000    0.00
   2.600    3.64  -17.13    0.11   0.000   0.200   0.000    0.00
   2.650    4.10  -12.74   -0.48   0.000   0.200   0.000    0.00
   2.700    3.97  -24.46   -0.13   0.000   0.200   0.000    0.00
   2.750    4.43  -30.03    0.36   0.000   0.200   0.000    0.00
   2.800    5.17  -31.91    0.52   0.000   0.200   0.000    0.00
   2.850    5.17  -40.01    0.36   0.000   0.200   0.000    0.00
   2.900    5.59  -42.59    0.12   0.000   0.200   0.000    0.00
   2.950    4.81  -41.25    0.44   0.000   0.200   0.000    0.00
   3.000    4.68  -34.43    0.20   0.000   0.200   0.000    0.00
   3.050    4.99  -38.01    0.10   0.000   0.200   0.000    0.00
   3.100    4.37  -38.83    0.05   0.000   0.200   0.000    0.00
   3.150    3.92  -33.88    0.04   0.000   0.200   0.000    0.00
   3.200    3.98  -28.99   -0.19   0.000   0.200   0.000    0.00
   3.250    4.80  -39.03    0.00   0.000   0.200   0.000    0.00
   3.300    5.33  -46.23    0.51   0.000   0.200   0.000    0.00
   3.350    4.69  -50.32    1.14   0.000   0.200   0.000    0.00
   3.400    5.19  -51.96    0.93   0.000   0.200   0.000    0.00
   3.450    6.20  -50.34    0.97   0.000   0.200   0.000    0.00
   3.500    5.46  -48.82    1.43   0.000   0.200   0.000    0.00
   3.550    4.87  -45.92    1.15   0.000   0.200   0.000    0.00
   3.600    5.26  -46.14    1.55   0.000   0.200   0.000    0.00
   3.650    5.18  -45.98    1.53   0.000   0.200   0.000    0.00
   3.700    4.23  -45.60    1.03   0.000   0.200   0.000    0.00
   3.750    4.60  -45.93    1.47   0.000   0.200   0.000    0.00
   3.800    3.23  -38.57    1.48   0.000   0.200   0.000    0.00
   3.850    3.95  -35.48    1.41   0.000   0.200   0.000    0.00
   3.900    4.14  -37.62    1.83   0.000   0.200   0.000    0.00
   3.950    4.61  -29.45    1.30   0.000   0.200   0.000    0.00
   4.000    4.58  -28.22    1.56   0.000   0.200   0.000    0.00
   4.050    3.99  -22.97    1.56   0.000   0.200   0.000    0.00
   4.100    4.15  -23.16    1.33   0.000   0.200   0.000    0.00
   4.150    4.14  -27.01    1.33   0.000   0.200   0.000    0.00
   4.200    3.94  -31.63    1.02   0.000   0.200   0.000    0.00
   4.250    4.02  -14.47    1.32   0.000   0.200   0.000    0.00
   4.300    4.54  -19.12    0.63   0.000   0.200   0.000    0.00
   4.350    4.69  -23.29    0.56   0.000   0.200   0.000    0.00
   4.400    4.52  -28.25    0.82   0.000   0.200   0.000    0.00
   4.450    4.69  -34.14    1.17   0.000   0.200   0.000    0.00
   4.500    4.50  -30.73    1.46   0.000   0.200   0.000    0.00
   4.550    4.86  -33.34    1.78   0.000   0.200   0.000    0.00
   4.600    4.58  -35.68    1.51   0.000   0.200   0.000    0.00
   4.650    4.57  -36.66    1.70   0.000   0.200   0.000    0.00
   4.700    4.89  -40.63    1.55   0.000   0.200   0.000    0.00
   4.750    4.34  -43.93    0.85   0.000   0.200   0.000    0.00
   4.800    4.05  -40.84    1.47   0.000   0.200   0.000    0.00
   4.850    4.09  -45.35    1.73   0.000   0.200   0.000    0.00
   4.900    3.67  -46.82    1.90   0.000   0.200   0.000    0.00
   4.950    4.06  -41.58    2.12   0.000   0.200   0.000    0.00
   5.000    4.74  -41.82    1.49   0.000   0.200   0.000    0.00
   5.050    5.44  -40.34    1.72   0.000   0.200   0.000    0.00
   5.100    5.71  -36.64    1.51   0.000   0.200   0.000    0.00
   5.150    5.63  -33.10    1.67   0.000   0.200   0.000    0.00
   5.200    5.24  -25.35    1.72   0.000   0.200   0.000    0.00
   5.250    5.25  -18.07    1.20   0.000   0.200   0.000    0.00
   5.300    6.15  -12.28    0.97   0.000   0.200   0.000    0.00
   5.350    6.50  -13.82    0.46   0.000   0.200   0.000    0.00
   5.400    6.49  -14.88    1.10   0.000   0.200   0.000    0.00
   5.450    6.70  -19.57    1.43   0.000   0.200   0.000    0.00
   5.500    7.15  -20.85    1.49   0.000   0.200   0.000    0.00
   5.550    6.69  -16.97    0.96   0.000   0.200   0.000    0.00
   5.600    6.41  -13.58    1.35   0.000   0.200   0.000    0.00
   5.650    5.96  -14.02    0.83   0.000   0.200   0.000    0.00
   5.700    6.78  -22.75    1.31   0.000   0.200   0.000    0.00
   5.750    6.51  -22.90    1.47   0.000   0.200   0.000    0.00
   5.800    5.44  -20.06    1.08   0.000   0.200   0.000    0.00
   5.850    5.06  -19.05    1.17   0.000   0.200   0.000    0.00
   5.900    4.56  -17.32    0.66   0.000   0.200   0.000    0.00
   5.950    4.75  -18.21    0.94   0.000   0.200   0.000    0.00
   6.000    5.29  -16.08    0.97   0.000   0.200   0.000    0.00
   6.050    4.92  -10.66    0.92   0.000   0.200   0.000    0.00
   6.100    5.61  -11.40    1.07   0.000   0.200   0.000    0.00
   6.150    5.66  -16.50    0.97   0.000   0.200   0.000    0.00
   6.200    5.74  -13.60    0.74   0.000   0.200   0.000    0.00
   6.250    6.34  -13.26    0.82   0.000   0.200   0.000    0.00
   6.300    6.25  -14.93    0.65   0.000   0.200   0.000    0.00
   6.350    6.87  -13.34    1.24   0.000   0.200   0.000    0.00
   6.400    7.22  -14.40    1.51   0.000   0.200   0.000    0.00
   6.450    6.87  -13.46    1.56   0.000   0.200   0.000    0.00
   6.500    6.26  -14.43    1.77   0.000   0.200   0.000    0.00
   6.550    6.37  -15.93    1.41   0.000   0.200   0.000    0.00
   6.600    6.44  -16.20    1.17   0.000   0.200   0.000    0.00
   6.650    6.32  -17.68    0.95   0.000   0.200   0.000    0.00
   6.700    6.69  -19.27    0.62   0.000   0.200   0.000    0.00
   6.750    6.95  -17.48    0.39   0.000   0.200   0.000    0.00
   6.800    6.86  -17.27   -0.31   0.000   0.200   0.000    0.00
   6.850    6.74  -13.44    0.29   0.000   0.200   0.000    0.00
   6.900    6.60  -15.36    0.24   0.000   0.200   0.000    0.00
   6.950    5.93  -16.99   -0.22   0.000   0.200   0.000    0.00
   7.000    5.84  -21.80   -0.26   0.000   0.200   0.000    0.00
   7.050    5.80  -15.65   -0.10   0.000   0.200   0.000    0.00
   7.100    6.07  -17.08   -0.33   0.000   0.200   0.000    0.00
   7.150    5.99  -17.61   -0.60   0.000   0.200   0.000    0.00
   7.200    6.25  -14.39   -0.80   0.000   0.200   0.000    0.00
   7.250    6.30  -21.13   -0.94   0.000   0.200   0.000    0.00
   7.300    6.75  -22.52   -0.88   0.000   0.200   0.000    0.00
   7.350    6.40  -22.47   -0.86   0.000   0.200   0.000    0.00
   7.400    6.43  -24.39   -0.99   0.000   0.200   0.000    0.00
   7.450    6.36  -24.77   -0.77   0.000   0.200   0.000    0.00
   7.500    6.29  -30.35    0.09   0.000   0.200   0.000    0.00
   7.550    6.20  -26.21    0.75   0.000   0.200   0.000    0.00
   7.600    5.66  -24.08    1.00   0.000   0.200   0.000    0.00
   7.650    5.90  -21.47    0.84   0.000   0.200   0.000    0.00
   7.700    5.29  -25.66    0.76   0.000   0.200   0.000    0.00
   7.750    5.73  -28.61    0.78   0.000   0.200   0.000    0.00
   7.800    5.81  -26.74    1.05   0.000   0.200   0.000    0.00
   7.850    6.00  -23.37    0.65   0.000   0.200   0.000    0.00
   7.900    6.38  -22.38    0.14   0.000   0.200   0.000    0.00
   7.950    6.58  -22.00   -0.20   0.000   0.200   0.000    0.00
   8.000    6.55  -24.07    0.09   0.000   0.200   0.000    0.00
   8.050    6.50  -28.53    0.26   0.000   0.200   0.000    0.00
   8.100    6.38  -30.07   -0.37   0.000   0.200   0.000    0.00
   8.150    6.24  -29.97    0.10   0.000   0.200   0.000    0.00
   8.200    5.90  -29.93   -0.07   0.000   0.200   0.000    0.00
   8.250    6.25  -33.09   -0.62   0.000   0.200   0.000    0.00
   8.300    6.55  -31.97   -0.49   0.000   0.200   0.000    0.00
   8.350    6.70  -36.89    0.27   0.000   0.200   0.000    0.00
   8.400    7.12  -39.43    0.23   0.000   0.200   0.000    0.00
   8.450    7.35  -35.04   -0.19   0.000   0.200   0.000    0.00
   8.500    7.05  -35.18    0.49   0.000   0.200   0.000    0.00
   8.550    6.75  -37.38    0.47   0.000   0.200   0.000    0.00
   8.600    6.42  -35.70    0.66   0.000   0.200   0.000    0.00
   8.650    6.54  -32.86    0.36   0.000   0.200   0.000    0.00
   8.700    6.37  -32.58   -0.09   0.000   0.200   0.000    0.00
   8.750    6.49  -31.27   -0.04   0.000   0.200   0.000    0.00
   8.800    6.16  -33.15    0.97   0.000   0.200   0.000    0.00
   8.850    6.40  -36.71    0.93   0.000   0.200   0.000    0.00
   8.900    6.56  -32.91    1.78   0.000   0.200   0.000    0.00
   8.950    6.39  -31.08    1.40   0.000   0.200   0.000    0.00
   9.000    6.14  -27.80    1.35   0.000   0.200   0.000    0.00
   9.050    5.98  -31.02    1.36   0.000   0.200   0.000    0.00
   9.100    6.05  -26.97    1.17   0.000   0.200   0.000    0.00
   9.150    6.21  -23.91    1.37   0.000   0.200   0.000    0.00
   9.200    6.12  -29.00    2.44   0.000   0.200   0.000    0.00
   9.250    5.91  -34.72    2.15   0.000   0.200   0.000    0.00
   9.300    6.56  -28.77    2.10   0.000   0.200   0.000    0.00
   9.350    6.54  -29.20    2.68   0.000   0.200   0.000    0.00
   9.400    6.49  -31.67    3.15   0.000   0.200   0.000    0.00
   9.450    6.82  -31.13    3.02   0.000   0.200   0.000    0.00
   9.500    6.32  -31.97    3.05   0.000   0.200   0.000    0.00
   9.550    6.35  -29.93    2.23   0.000   0.200   0.000    0.00
   9.600    6.47  -27.92    1.55   0.000   0.200   0.000    0.00
   9.650    6.10  -25.59    1.61   0.000   0.200   0.000    0.00
   9.700    6.29  -22.84    1.38   0.000   0.200   0.000    0.00
   9.750    5.73  -19.34    1.63   0.000   0.200   0.000    0.00
   9.800    5.15  -29.02    1.80   0.000   0.200   0.000    0.00
   9.850    4.71  -21.79    2.12   0.000   0.200   0.000    0.00
   9.900    5.35  -14.95    2.05   0.000   0.200   0.000    0.00
   9.950    5.76  -17.47    1.71   0.000   0.200   0.000    0.00
  10.000    6.04  -20.99    2.41   0.000   0.200   0.000    0.00
  10.050    6.17  -20.08    2.27   0.000   0.200   0.000    0.00
  10.100    5.97  -25.73    1.38   0.000   0.200   0.000    0.00
  10.150    5.65  -19.06    1.71   0.000   0.200   0.000    0.00
  10.200    6.30  -16.23    1.86   0.000   0.200   0.000    0.00
  10.250    6.62  -17.38    1.06   0.000   0.200   0.000    0.00
  10.300    6.37  -22.39    0.80   0.000   0.200   0.000    0.00
  10.350    7.01  -19.04    0.30   0.000   0.200   0.000    0.00
  10.400    7.10  -16.91   -0.02   0.000   0.200   0.000    0.00
  10.450    6.41  -22.59    0.31   0.000   0.200   0.000    0.00
  10.500    5.44  -25.68   -0.03   0.000   0.200   0.000    0.00
  10.550    5.70  -22.85   -0.76   0.000   0.200   0.000    0.00
  10.600    5.23  -21.64   -1.51   0.000   0.200   0.000    0.00
  10.650    5.38  -16.47   -1.32   0.000   0.200   0.000    0.00
  10.700    5.77  -17.22   -1.50   0.000   0.200   0.000    0.00
  10.750    5.97  -24.56   -2.19   0.000   0.200   0.000    0.00
  10.800    6.03  -23.40   -1.70   0.000   0.200   0.000    0.00
  10.850    6.37  -20.71   -1.71   0.000   0.200   0.000    0.00
  10.900    6.76  -13.08   -1.83   0.000   0.200   0.000    0.00
  10.950    6.47  -17.02   -2.07   0.000   0.200   0.000    0.00
  11.000    6.95   -9.73   -1.65   0.000   0.200   0.000    0.00
  11.050    7.76   -5.35   -1.16   0.000   0.200   0.000    0.00
  11.100    7.42   -7.91   -1.07   0.000   0.200   0.000    0.00
  11.150    7.78   -8.73   -1.23   0.000   0.200   0.000    0.00
  11.200    7.87  -12.23   -1.72   0.000   0.200   0.000    0.00
  11.250    8.68  -10.56   -1.49   0.000   0.200   0.000    0.00
  11.300    8.74   -8.72   -1.77   0.000   0.200   0.000    0.00
  11.350    8.88  -11.68   -1.72   0.000   0.200   0.000    0.00
  11.400    8.15  -13.28   -1.74   0.000   0.200   0.000    0.00
  11.450    7.81  -11.40   -1.60   0.000   0.200   0.000    0.00
  11.500    8.08   -6.52   -2.09   0.000   0.200   0.000    0.00
  11.550    8.32  -10.15   -2.58   0.000   0.200   0.000    0.00
  11.600    8.56  -10.06   -2.11   0.000   0.200   0.000    0.00
  11.650    8.01  -10.03   -1.64   0.000   0.200   0.000    0.00
  11.700    8.53  -10.87   -0.88   0.000   0.200   0.000    0.00
  11.750    8.51  -12.16   -0.70   0.000   0.200   0.000    0.00
  11.800    7.84   -7.89   -0.37   0.000   0.200   0.000    0.00
  11.850    8.05  -11.77    0.03   0.000   0.200   0.000    0.00
  11.900    7.85   -7.24   -0.06   0.000   0.200   0.000    0.00
  11.950    7.89  -10.32   -0.91   0.000   0.200   0.000    0.00
  12.000    7.29  -11.42   -0.67   0.000   0.200   0.000    0.00
  12.050    6.74   -8.76   -0.24   0.000   0.200   0.000    0.00
  12.100    6.77   -6.04    0.15   0.000   0.200   0.000    0.00
  12.150    7.00   -5.64   -0.25   0.000   0.200   0.000    0.00
  12.200    6.73   -7.80   -0.10   0.000   0.200   0.000    0.00
  12.250    6.99  -14.17   -0.31   0.000   0.200   0.000    0.00
  12.300    7.08   -9.85   -0.11   0.000   0.200   0.000    0.00
  12.350    6.91   -5.26   -0.23   0.000   0.200   0.000    0.00
  12.400    6.94   -5.68   -0.72   0.000   0.200   0.000    0.00
  12.450    6.77   -0.99   -0.38   0.000   0.200   0.000    0.00
  12.500    7.00    6.22   -0.51   0.000   0.200   0.000    0.00
  12.550    6.76    0.80   -0.79   0.000   0.200   0.000    0.00
  12.600    6.51    3.51   -0.36   0.000   0.200   0.000    0.00
  12.650    6.28    4.29   -0.15   0.000   0.200   0.000    0.00
  12.700    6.51   -2.06   -0.15   0.000   0.200   0.000    0.00
  12.750    6.80   -1.54   -0.76   0.000   0.200   0.000    0.00
  12.800    6.88   -4.23   -0.16   0.000   0.200   0.000    0.00
  12.850    7.15   -3.84    0.05   0.000   0.200   0.000    0.00
  12.900    6.96   -0.46    0.16   0.000   0.200   0.000    0.00
  12.950    6.89   -0.13   -0.20   0.000   0.200   0.000    0.00
  13.000    6.56    0.91   -0.12   0.000   0.200   0.000    0.00
  13.050    6.80   -1.03   -0.01   0.000   0.200   0.000    0.00
  13.100    7.10    1.40    0.00   0.000   0.200   0.000    0.00
  13.150    7.23   -1.58    0.19   0.000   0.200   0.000    0.00
  13.200    7.66   -4.40    0.52   0.000   0.200   0.000    0.00
  13.250    7.71   -9.29    0.24   0.000   0.200   0.000    0.00
  13.300    7.70  -10.63    0.18   0.000   0.200   0.000    0.00
  13.350    8.44   -8.01   -0.31   0.000   0.200   0.000    0.00
  13.400    8.43  -12.54    0.46   0.000   0.200   0.000    0.00
  13.450    8.07   -9.24    0.35   0.000   0.200   0.000    0.00
  13.500    7.77   -2.25    0.40   0.000   0.200   0.000    0.00
  13.550    8.14   -2.63    0.81   0.000   0.200   0.000    0.00
  13.600    8.11    1.03    0.75   0.000   0.200   0.000    0.00
  13.650    7.90    0.07    0.85   0.000   0.200   0.000    0.00
  13.700    8.32    1.84    1.29   0.000   0.200   0.000    0.00
  13.750    8.60    6.23    0.79   0.000   0.200   0.000    0.00
  13.800    8.66    6.29    0.40   0.000   0.200   0.000    0.00
  13.850    8.52    5.95    0.53   0.000   0.200   0.000    0.00
  13.900    7.98    1.31    0.48   0.000   0.200   0.000    0.00
  13.950    8.18    0.17    1.31   0.000   0.200   0.000    0.00
  14.000    8.67    3.86    1.10   0.000   0.200   0.000    0.00
  14.050    8.76    6.67    0.79   0.000   0.200   0.000    0.00
  14.100    8.96    7.78    1.07   0.000   0.200   0.000    0.00
  14.150    8.71    9.50    0.56   0.000   0.200   0.000    0.00
  14.200    8.87   13.29    0.27   0.000   0.200   0.000    0.00
  14.250    9.04   16.18    0.06   0.000   0.200   0.000    0.00
  14.300    9.45   13.68    0.33   0.000   0.200   0.000    0.00
  14.350    9.23    8.82    0.08   0.000   0.200   0.000    0.00
  14.400    9.06    7.76   -0.41   0.000   0.200   0.000    0.00
  14.450    9.16    7.08   -0.67   0.000   0.200   0.000    0.00
  14.500    9.12    7.97   -0.95   0.000   0.200   0.000    0.00
  14.550    9.17    2.28    0.04   0.000   0.200   0.000    0.00
  14.600    9.26    1.31    0.45   0.000   0.200   0.000    0.00
  14.650    9.47    6.80    0.42   0.000   0.200   0.000    0.00
  14.700   10.14    9.82    0.06   0.000   0.200   0.000    0.00
  14.750    9.70   10.44   -0.24   0.000   0.200   0.000    0.00
  14.800    9.65    7.90   -0.91   0.000   0.200   0.000    0.00
  14.850    9.72    5.76   -0.74   0.000   0.200   0.000    0.00
  14.900    9.68   13.38   -0.05   0.000   0.200   0.000    0.00
  14.950    9.63   13.17    0.01   0.000   0.200   0.000    0.00
  15.000    9.87   11.64    0.39   0.000   0.200   0.000    0.00
  15.050    9.66    9.75    0.65   0.000   0.200   0.000    0.00
  15.100    9.69    6.53    0.24   0.000   0.200   0.000    0.00
  15.150    9.48    4.48    0.44   0.000   0.200   0.000    0.00
  15.200    9.74    4.18    0.91   0.000   0.200   0.000    0.00
  15.250    9.28    4.09   -0.07   0.000   0.200   0.000    0.00
  15.300    9.81    4.43    0.12   0.000   0.200   0.000    0.00
  15.350    9.55    4.40    0.45   0.000   0.200   0.000    0.00
  15.400    9.93    9.17    0.31   0.000   0.200   0.000    0.00
  15.450    9.74    4.97    0.13   0.000   0.200   0.000    0.00
  15.500    9.58    1.38   -0.29   0.000   0.200   0.000    0.00
  15.550   10.59    0.78   -0.58   0.000   0.200   0.000    0.00
  15.600   10.41    2.12   -0.65   0.000   0.200   0.000    0.00
  15.650    9.92    5.09   -1.13   0.000   0.200   0.000    0.00
  15.700    9.98    4.81   -1.55   0.000   0.200   0.000    0.00
  15.750    9.89    4.91   -1.11   0.000   0.200   0.000    0.00
  15.800    9.86    9.65   -1.07   0.000   0.200   0.000    0.00
  15.850    9.45    5.54   -0.99   0.000   0.200   0.000    0.00
  15.900    8.97    3.34   -1.30   0.000   0.200   0.000    0.00
  15.950    9.06   -1.22   -1.47   0.000   0.200   0.000    0.00
  16.000    9.56   -2.62   -1.02   0.000   0.200   0.000    0.00
  16.050    8.97    0.13   -0.63   0.000   0.200   0.000    0.00
  16.100    8.58   -0.62   -0.57   0.000   0.200   0.000    0.00
  16.150    8.46   -3.66   -0.20   0.000   0.200   0.000    0.00
  16.200    8.32   -4.20    0.04   0.000   0.200   0.000    0.00
  16.250    8.90   -5.18    0.06   0.000   0.200   0.000    0.00
  16.300    9.91   -7.02    0.27   0.000   0.200   0.000    0.00
  16.350    9.32   -5.22   -0.26   0.000   0.200   0.000    0.00
  16.400    9.12   -4.01   -1.13   0.000   0.200   0.000    0.00
  16.450    9.36   -2.13   -1.63   0.000   0.200   0.000    0.00
  16.500    9.57   -3.47   -1.14   0.000   0.200   0.000    0.00
  16.550    9.62   -6.08   -1.09   0.000   0.200   0.000    0.00
  16.600    9.79   -5.25   -0.57   0.000   0.200   0.000    0.00
  16.650    9.80   -5.20   -0.37   0.000   0.200   0.000    0.00
  16.700   10.19   -3.15   -0.29   0.000   0.200   0.000    0.00
  16.750   10.43   -6.34   -0.56   0.000   0.200   0.000    0.00
  16.800   10.69   -8.06   -0.21   0.000   0.200   0.000    0.00
  16.850   10.67   -5.78    0.05   0.000   0.200   0.000    0.00
  16.900   10.98   -4.38    0.31   0.000   0.200   0.000    0.00
  16.950   10.87   -6.26    0.49   0.000   0.200   0.000    0.00
  17.000   10.03   -9.84   -0.06   0.000   0.200   0.000    0.00
  17.050    9.66   -9.82   -0.38   0.000   0.200   0.000    0.00
  17.100    9.63   -5.20    0.03   0.000   0.200   0.000    0.00
  17.150    9.70   -8.71   -0.41   0.000   0.200   0.000    0.00
  17.200    8.96   -6.97   -0.77   0.000   0.200   0.000    0.00
  17.250    9.01   -4.02   -0.53   0.000   0.200   0.000    0.00
  17.300    9.38   -0.73   -0.82   0.000   0.200   0.000    0.00
  17.350    9.31   -6.03   -0.55   0.000   0.200   0.000    0.00
  17.400    9.62   -5.98    0.05   0.000   0.200   0.000    0.00
  17.450    9.41   -3.13   -0.43   0.000   0.200   0.000    0.00
  17.500    9.81    0.02   -0.38   0.000   0.200   0.000    0.00
  17.550   10.08   -1.75   -0.04   0.000   0.200   0.000    0.00
  17.600   10.05   -0.52   -0.10   0.000   0.200   0.000    0.00
  17.650    9.92   -2.60    0.38   0.000   0.200   0.000    0.00
  17.700    9.75   -5.70    0.12   0.000   0.200   0.000    0.00
  17.750    9.22   -2.10   -0.39   0.000   0.200   0.000    0.00
  17.800    9.49   -0.83   -1.03   0.000   0.200   0.000    0.00
  17.850    9.10   -3.92   -0.38   0.000   0.200   0.000    0.00
  17.900    8.70   -4.93   -0.23   0.000   0.200   0.000    0.00
  17.950    8.76   -5.48   -0.49   0.000   0.200   0.000    0.00
  18.000    8.73   -3.67   -0.31   0.000   0.200   0.000    0.00
  18.050    8.82   -3.80   -0.34   0.000   0.200   0.000    0.00
  18.100    8.44    0.22   -0.60   0.000   0.200   0.000    0.00
  18.150    8.10    2.25   -0.98   0.000   0.200   0.000    0.00
  18.200    8.13    3.21   -0.43   0.000   0.200   0.000    0.00
  18.250    8.62   -0.19   -0.60   0.000   0.200   0.000    0.00
  18.300    8.56   -1.83   -0.79   0.000   0.200   0.000    0.00
  18.350    8.18   -3.35   -1.15   0.000   0.200   0.000    0.00
  18.400    9.08   -3.15   -1.27   0.000   0.200   0.000    0.00
  18.450    9.18   -4.26   -1.64   0.000   0.200   0.000    0.00
  18.500    9.03   -5.00   -1.86   0.000   0.200   0.000    0.00
  18.550    8.97   -8.56   -1.48   0.000   0.200   0.000    0.00
  18.600    8.73   -8.90   -1.27   0.000   0.200   0.000    0.00
  18.650    9.85   -5.78   -1.69   0.000   0.200   0.000    0.00
  18.700    9.95   -7.31   -1.36   0.000   0.200   0.000    0.00
  18.750    9.60   -7.53   -1.40   0.000   0.200   0.000    0.00
  18.800    9.99   -6.53   -0.68   0.000   0.200   0.000    0.00
  18.850   10.45   -4.18   -0.75   0.000   0.200   0.000    0.00
  18.900   10.11   -4.08   -1.04   0.000   0.200   0.000    0.00
  18.950   10.10   -6.08   -1.15   0.000   0.200   0.000    0.00
  19.000    9.91   -5.57   -1.19   0.000   0.200   0.000    0.00
  19.050   10.62   -4.35   -1.12   0.000   0.200   0.000    0.00
  19.100   11.03   -5.67   -1.62   0.000   0.200   0.000    0.00
  19.150   10.74   -6.53   -0.72   0.000   0.200   0.000    0.00
  19.200   10.57   -8.73   -1.12   0.000   0.200   0.000    0.00
  19.250   10.66  -11.43   -1.07   0.000   0.200   0.000    0.00
  19.300   10.47   -8.01   -1.33   0.000   0.200   0.000    0.00
  19.350   10.51   -7.44   -1.02   0.000   0.200   0.000    0.00
  19.400   10.09   -7.49   -1.30   0.000   0.200   0.000    0.00
  19.450   10.45   -7.35   -0.67   0.000   0.200   0.000    0.00
  19.500   10.29   -9.24   -0.54   0.000   0.200   0.000    0.00
  19.550   10.43  -12.09   -1.24   0.000   0.200   0.000    0.00
  19.600   10.18  -14.37   -1.17   0.000   0.200   0.000    0.00
  19.650    9.96  -13.38   -1.45   0.000   0.200   0.000    0.00
  19.700   10.17  -12.14   -1.37   0.000   0.200   0.000    0.00
  19.750   10.47  -10.77   -1.93   0.000   0.200   0.000    0.00
  19.800   10.63  -13.21   -1.35   0.000   0.200   0.000    0.00
  19.850   10.61  -15.66   -0.54   0.000   0.200   0.000    0.00
  19.900   10.53  -13.90   -0.81   0.000   0.200   0.000    0.00
  19.950   10.82  -16.39   -0.73   0.000   0.200   0.000    0.00
  20.000    9.63  -15.10   -0.88   0.000   0.200   0.000    0.00
  20.050    9.49  -13.83   -2.13   0.000   0.200   0.000    0.00
  20.100    9.44  -13.62   -1.54   0.000   0.200   0.000    0.00
  20.150   10.12  -17.30   -1.62   0.000   0.200   0.000    0.00
  20.200   10.28  -15.95   -1.71   0.000   0.200   0.000    0.00
  20.250   10.30  -15.04   -1.58   0.000   0.200   0.000    0.00
  20.300   10.15  -14.67   -1.76   0.000   0.200   0.000    0.00
  20.350   10.29  -13.70   -2.20   0.000   0.200   0.000    0.00
  20.400   10.70  -13.85   -2.22   0.000   0.200   0.000    0.00
  20.450   10.91  -10.96   -1.96   0.000   0.200   0.000    0.00
  20.500   11.44  -11.13   -1.85   0.000   0.200   0.000    0.00
  20.550   11.29  -13.12   -1.65   0.000   0.200   0.000    0.00
  20.600   11.59  -16.20   -1.27   0.000   0.200   0.000    0.00
  20.650   11.75  -20.27   -1.55   0.000   0.200   0.000    0.00
  20.700   11.09  -20.42   -0.92   0.000   0.200   0.000    0.00
  20.750   10.38  -19.59   -0.24   0.000   0.200   0.000    0.00
  20.800   10.15  -18.85   -0.91   0.000   0.200   0.000    0.00
  20.850   10.16  -18.31   -1.44   0.000   0.200   0.000    0.00
  20.900   10.49  -13.78   -1.91   0.000   0.200   0.000    0.00
  20.950   10.39  -11.54   -1.58   0.000   0.200   0.000    0.00
  21.000   10.15   -9.08   -1.44   0.000   0.200   0.000    0.00
  21.050   10.39   -5.65   -1.19   0.000   0.200   0.000    0.00
  21.100   11.13   -3.69   -0.74   0.000   0.200   0.000    0.00
  21.150   10.60   -2.59   -1.16   0.000   0.200   0.000    0.00
  21.200   10.11   -6.05   -1.19   0.000   0.200   0.000    0.00
  21.250    9.82   -5.72   -0.76   0.000   0.200   0.000    0.00
  21.300    8.82   -4.73   -1.49   0.000   0.200   0.000    0.00
  21.350    8.57   -2.93   -1.22   0.000   0.200   0.000    0.00
  21.400    9.27   -2.85   -0.75   0.000   0.200   0.000    0.00
  21.450    8.83   -2.39   -0.86   0.000   0.200   0.000    0.00
  21.500    8.41   -2.20   -0.48   0.000   0.200   0.000    0.00
  21.550    8.91   -5.26   -0.35   0.000   0.200   0.000    0.00
  21.600    8.65   -7.61   -1.01   0.000   0.200   0.000    0.00
  21.650    8.74   -9.16   -0.68   0.000   0.200   0.000    0.00
  21.700    9.26   -9.01   -0.50   0.000   0.200   0.000    0.00
  21.750    9.27   -8.09   -0.34   0.000   0.200   0.000    0.00
  21.800    8.72  -12.05   -0.46   0.000   0.200   0.000    0.00
  21.850    9.31  -13.22   -0.73   0.000   0.200   0.000    0.00
  21.900    9.72  -10.03   -0.44   0.000   0.200   0.000    0.00
  21.950    9.84   -8.12   -1.09   0.000   0.200   0.000    0.00
  22.000    9.71   -4.97   -1.51   0.000   0.200   0.000    0.00
  22.050    9.73   -7.17   -1.98   0.000   0.200   0.000    0.00
  22.100    9.55   -6.79   -1.43   0.000   0.200   0.000    0.00
  22.150   10.07   -2.25   -0.97   0.000   0.200   0.000    0.00
  22.200   10.16   -2.61   -0.99   0.000   0.200   0.000    0.00
  22.250   10.43   -0.92   -0.73   0.000   0.200   0.000    0.00
  22.300   10.51   -1.43   -1.00   0.000   0.200   0.000    0.00
  22.350   10.21   -2.72   -1.34   0.000   0.200   0.000    0.00