! This hub-height wind-speed file was generated by TurbSim (v1.06.00, 21-Sep-2012) on 03-Feb-2018 at 23:30:23.
!
! The requested statistics for this data were:
!    Mean Total Wind Speed =   17.000 m/s
!    Turbulence Intensity  =   15.112%
!
!   Time  HorSpd  WndDir  VerSpd  HorShr  VerShr  LnVShr  GstSpd
!  (sec)   (m/s)   (deg)   (m/s)     (-)     (-)     (-)   (m/s)
   0.000   20.18    2.39   -1.10   0.000   0.200   0.000    0.00
   0.050   20.68    1.37   -0.81   0.000   0.200   0.000    0.00
   0.100   20.49    4.61   -1.14   0.000   0.200   0.000    0.00
   0.150   21.22    5.70   -1.31   0.000   0.200   0.000    0.00
   0.200   21.46    5.17   -1.00   0.000   0.200   0.000    0.00
   0.250   21.54    3.50   -1.70   0.000   0.200   0.000    0.00
   0.300   21.49    1.70   -1.58   0.000   0.200   0.000    0.00
   0.350   21.49    1.76   -2.22   0.000   0.200   0.000    0.00
   0.400   21.40    3.16   -1.25   0.000   0.200   0.000    0.00
   0.450   21.42    4.82   -0.75   0.000   0.200   0.000    0.00
   0.500   21.54    4.73   -0.90   0.000   0.200   0.000    0.00
   0.550   21.03    6.26   -1.25   0.000   0.200   0.000    0.00
   0.600   20.16    5.76   -1.60   0.000   0.200   0.000    0.00
   0.650   20.04    5.08   -1.16   0.000   0.200   0.000    0.00
   0.700   19.56    5.38   -1.89   0.000   0.200   0.000    0.00
   0.750   18.96    6.00   -2.03   0.000   0.200   0.000    0.00
   0.800   18.49   10.66   -2.35   0.000   0.200   0.000    0.00
   0.850   18.05   10.38   -2.27   0.000   0.200   0.000    0.00
   0.900   18.30    9.89   -1.80   0.000   0.200   0.000    0.00
   0.950   18.06   10.35   -1.23   0.000   0.200   0.000    0.00
   1.000   19.50   10.10   -1.87   0.000   0.200   0.000    0.00
   1.050   20.22    7.48   -2.08   0.000   0.200   0.000    0.00
   1.100   20.06    6.22   -1.93   0.000   0.200   0.000    0.00
   1.150   20.55    5.72   -0.54   0.000   0.200   0.000    0.00
   1.200   20.89    3.64   -1.20   0.000   0.200   0.000    0.00
   1.250   20.27    3.91   -1.93   0.000   0.200   0.000    0.00
   1.300   19.96    5.87   -1.80   0.000   0.200   0.000    0.00
   1.350   19.65    5.72   -1.99   0.000   0.200   0.000    0.00
   1.400   19.85    6.78   -1.78   0.000   0.200   0.000    0.00
   1.450   20.20    8.84   -0.48   0.000   0.200   0.000    0.00
   1.500   20.42    8.01    1.24   0.000   0.200   0.000    0.00
   1.550   20.44    7.92    0.74   0.000   0.200   0.000    0.00
   1.600   20.64    9.54   -0.12   0.000   0.200   0.000    0.00
   1.650   20.53    8.60    0.37   0.000   0.200   0.000    0.00
   1.700   19.79    9.47    0.24   0.000   0.200   0.000    0.00
   1.750   20.02    8.06    0.74   0.000   0.200   0.000    0.00
   1.800   19.99    7.97    1.47   0.000   0.200   0.000    0.00
   1.850   20.72   12.66    1.14   0.000   0.200   0.000    0.00
   1.900   19.73   10.41   -0.25   0.000   0.200   0.000    0.00
   1.950   19.29    8.82    0.23   0.000   0.200   0.000    0.00
   2.000   19.95   10.09   -0.50   0.000   0.200   0.000    0.00
   2.050   20.41    9.19   -1.22   0.000   0.200   0.000    0.00
   2.100   20.94    9.49   -1.03   0.000   0.200   0.000    0.00
   2.150   19.96    9.12    0.67   0.000   0.200   0.000    0.00
   2.200   19.46    9.37    1.65   0.000   0.200   0.000    0.00
   2.250   19.01    6.59    1.37   0.000   0.200   0.000    0.00
   2.300   19.08    5.01    0.73   0.000   0.200   0.000    0.00
   2.350   19.37    5.19   -0.42   0.000   0.200   0.000    0.00
   2.400   19.92    7.23    0.32   0.000   0.200   0.000    0.00
   2.450   20.26    7.13   -0.49   0.000   0.200   0.000    0.00
   2.500   20.58    5.72   -0.57   0.000   0.200   0.000    0.00
   2.550   20.51    6.12   -0.28   0.000   0.200   0.000    0.00
   2.600   20.04    6.11   -1.69   0.000   0.200   0.000    0.00
   2.650   19.30    5.99   -1.58   0.000   0.200   0.000    0.00
   2.700   19.78    5.12   -0.74   0.000   0.200   0.000    0.00
   2.750   20.52    4.60   -0.44   0.000   0.200   0.000    0.00
   2.800   20.37    3.57   -0.37   0.000   0.200   0.000    0.00
   2.850   20.40    0.55   -0.72   0.000   0.200   0.000    0.00
   2.900   19.76    1.40   -0.32   0.000   0.200   0.000    0.00
   2.950   19.72    0.69   -0.70   0.000   0.200   0.000    0.00
   3.000   19.93   -1.09   -0.62   0.000   0.200   0.000    0.00
   3.050   19.49   -0.09   -1.04   0.000   0.200   0.000    0.00
   3.100   20.39   -2.64   -1.10   0.000   0.200   0.000    0.00
   3.150   20.19   -1.39   -1.65   0.000   0.200   0.000    0.00
   3.200   20.39   -2.58   -0.94   0.000   0.200   0.000    0.00
   3.250   20.02   -1.24   -1.42   0.000   0.200   0.000    0.00
   3.300   19.46   -2.68   -0.62   0.000   0.200   0.000    0.00
   3.350   18.86   -1.76   -0.76   0.000   0.200   0.000    0.00
   3.400   19.32   -2.79   -0.86   0.000   0.200   0.000    0.00
   3.450   19.48   -3.41   -1.12   0.000   0.200   0.000    0.00
   3.500   18.99   -4.18   -1.36   0.000   0.200   0.000    0.00
   3.550   18.55   -2.60   -1.02   0.000   0.200   0.000    0.00
   3.600   18.48   -3.51   -0.76   0.000   0.200   0.000    0.00
   3.650   18.54   -2.78   -0.33   0.000   0.200   0.000    0.00
   3.700   18.30   -3.27   -0.70   0.000   0.200   0.000    0.00
   3.750   18.66   -2.52   -1.27   0.000   0.200   0.000    0.00
   3.800   19.22   -0.70   -1.62   0.000   0.200   0.000    0.00
   3.850   19.36    0.57   -1.86   0.000   0.200   0.000    0.00
   3.900   18.79   -1.14   -2.41   0.000   0.200   0.000    0.00
   3.950   18.36   -0.28   -2.73   0.000   0.200   0.000    0.00
   4.000   19.03   -0.48   -2.65   0.000   0.200   0.000    0.00
   4.050   19.76   -0.02   -2.01   0.000   0.200   0.000    0.00
   4.100   20.10    1.57   -2.41   0.000   0.200   0.000    0.00
   4.150   19.56    5.64   -1.03   0.000   0.200   0.000    0.00
   4.200   19.68    7.81   -0.36   0.000   0.200   0.000    0.00
   4.250   20.51    8.02   -0.68   0.000   0.200   0.000    0.00
   4.300   19.60    9.63   -0.62   0.000   0.200   0.000    0.00
   4.350   19.60   10.03   -0.49   0.000   0.200   0.000    0.00
   4.400   19.10   10.54    0.51   0.000   0.200   0.000    0.00
   4.450   18.95    9.28    0.98   0.000   0.200   0.000    0.00
   4.500   18.76    7.66    0.07   0.000   0.200   0.000    0.00
   4.550   18.45    8.06    0.25   0.000   0.200   0.000    0.00
   4.600   18.01    9.58    0.55   0.000   0.200   0.000    0.00
   4.650   17.46    7.10    0.55   0.000   0.200   0.000    0.00
   4.700   17.70    6.26   -0.36   0.000   0.200   0.000    0.00
   4.750   18.17    4.83   -0.14   0.000   0.200   0.000    0.00
   4.800   18.24    5.46    0.27   0.000   0.200   0.000    0.00
   4.850   18.59    6.88    0.89   0.000   0.200   0.000    0.00
   4.900   17.87    6.43    0.34   0.000   0.200   0.000    0.00
   4.950   17.31    7.92    1.03   0.000   0.200   0.000    0.00
   5.000   17.72    6.90    0.53   0.000   0.200   0.000    0.00
   5.050   17.34    5.58    0.40   0.000   0.200   0.000    0.00
   5.100   17.50    4.65    0.31   0.000   0.200   0.000    0.00
   5.150   17.37    4.33   -0.06   0.000   0.200   0.000    0.00
   5.200   17.50    2.49    0.20   0.000   0.200   0.000    0.00
   5.250   17.95    3.49    0.86   0.000   0.200   0.000    0.00
   5.300   18.86    2.90    0.78   0.000   0.200   0.000    0.00
   5.350   18.74    2.27    0.57   0.000   0.200   0.000    0.00
   5.400   19.71    2.69    0.83   0.000   0.200   0.000    0.00
   5.450   19.58    3.71    0.85   0.000   0.200   0.000    0.00
   5.500   19.82   -1.13   -0.25   0.000   0.200   0.000    0.00
   5.550   19.96   -1.98   -0.54   0.000   0.200   0.000    0.00
   5.600   19.36    1.36   -0.29   0.000   0.200   0.000    0.00
   5.650   19.88    1.48    0.26   0.000   0.200   0.000    0.00
   5.700   19.75    0.79   -0.78   0.000   0.200   0.000    0.00
   5.750   18.88   -1.88   -1.71   0.000   0.200   0.000    0.00
   5.800   19.19   -2.57   -1.07   0.000   0.200   0.000    0.00
   5.850   19.49   -1.03   -1.14   0.000   0.200   0.000    0.00
   5.900   18.91   -2.09   -1.77   0.000   0.200   0.000    0.00
   5.950   19.49   -2.97   -1.19   0.000   0.200   0.000    0.00
   6.000   19.84   -2.28   -0.83   0.000   0.200   0.000    0.00
   6.050   19.76   -1.22   -1.24   0.000   0.200   0.000    0.00
   6.100   20.27   -1.15   -0.86   0.000   0.200   0.000    0.00
   6.150   20.56   -3.60   -0.41   0.000   0.200   0.000    0.00
   6.200   21.63   -4.38   -1.26   0.000   0.200   0.000    0.00
   6.250   20.76   -4.74   -1.85   0.000   0.200   0.000    0.00
   6.300   20.86   -5.70   -1.40   0.000   0.200   0.000    0.00
   6.350   21.85   -5.12   -1.85   0.000   0.200   0.000    0.00
   6.400   22.13   -4.52   -1.76   0.000   0.200   0.000    0.00
   6.450   21.54   -3.56   -2.16   0.000   0.200   0.000    0.00
   6.500   21.27   -5.58   -2.13   0.000   0.200   0.000    0.00
   6.550   21.03   -8.97   -2.59   0.000   0.200   0.000    0.00
   6.600   21.84   -8.52   -2.38   0.000   0.200   0.000    0.00
   6.650   22.06   -8.04   -3.49   0.000   0.200   0.000    0.00
   6.700   22.30   -7.39   -3.95   0.000   0.200   0.000    0.00
   6.750   22.69   -8.58   -3.30   0.000   0.200   0.000    0.00
   6.800   22.73   -6.16   -3.41   0.000   0.200   0.000    0.00
   6.850   23.05   -5.32   -3.81   0.000   0.200   0.000    0.00
   6.900   22.68   -4.14   -3.77   0.000   0.200   0.000    0.00
   6.950   22.83   -6.75   -3.66   0.000   0.200   0.000    0.00
   7.000   23.44   -7.85   -3.18   0.000   0.200   0.000    0.00
   7.050   23.69   -6.24   -1.80   0.000   0.200   0.000    0.00
   7.100   23.03   -4.92   -1.90   0.000   0.200   0.000    0.00
   7.150   23.83   -5.55   -1.54   0.000   0.200   0.000    0.00
   7.200   23.89   -5.78   -1.82   0.000   0.200   0.000    0.00
   7.250   24.79   -4.16   -2.00   0.000   0.200   0.000    0.00
   7.300   24.32   -2.90   -1.76   0.000   0.200   0.000    0.00
   7.350   24.64   -3.98   -3.30   0.000   0.200   0.000    0.00
   7.400   24.56   -2.68   -3.49   0.000   0.200   0.000    0.00
   7.450   24.35    0.39   -3.59   0.000   0.200   0.000    0.00
   7.500   24.89   -0.44   -2.70   0.000   0.200   0.000    0.00
   7.550   24.39   -1.49   -2.92   0.000   0.200   0.000    0.00
   7.600   24.20    0.00   -3.06   0.000   0.200   0.000    0.00
   7.650   23.52   -0.55   -2.91   0.000   0.200   0.000    0.00
   7.700   24.31   -1.39   -2.39   0.000   0.200   0.000    0.00
   7.750   24.12   -2.69   -2.23   0.000   0.200   0.000    0.00
   7.800   24.46   -2.98   -1.66   0.000   0.200   0.000    0.00
   7.850   25.23   -5.02   -1.99   0.000   0.200   0.000    0.00
   7.900   25.27   -2.72   -2.79   0.000   0.200   0.000    0.00
   7.950   25.78   -1.10   -2.79   0.000   0.200   0.000    0.00
   8.000   25.52   -2.74   -2.13   0.000   0.200   0.000    0.00
   8.050   25.60   -2.90   -1.72   0.000   0.200   0.000    0.00
   8.100   25.13   -3.06   -1.04   0.000   0.200   0.000    0.00
   8.150   25.50   -3.43   -1.07   0.000   0.200   0.000    0.00
   8.200   24.99   -3.95   -1.00   0.000   0.200   0.000    0.00
   8.250   25.28   -4.29   -1.85   0.000   0.200   0.000    0.00
   8.300   25.47   -3.31   -1.75   0.000   0.200   0.000    0.00
   8.350   24.58   -3.81   -1.44   0.000   0.200   0.000    0.00
   8.400   24.10   -2.16   -1.66   0.000   0.200   0.000    0.00
   8.450   24.85   -2.42   -1.97   0.000   0.200   0.000    0.00
   8.500   24.01   -4.77   -1.96   0.000   0.200   0.000    0.00
   8.550   23.24   -5.16   -2.11   0.000   0.200   0.000    0.00
   8.600   23.11   -4.74   -1.63   0.000   0.200   0.000    0.00
   8.650   23.60   -5.64   -1.45   0.000   0.200   0.000    0.00
   8.700   23.69   -4.17   -1.33   0.000   0.200   0.000    0.00
   8.750   23.65   -2.63   -1.12   0.000   0.200   0.000    0.00
   8.800   23.79   -3.56   -2.22   0.000   0.200   0.000    0.00
   8.850   23.65   -1.96   -2.76   0.000   0.200   0.000    0.00
   8.900   23.17   -1.99   -2.26   0.000   0.200   0.000    0.00
   8.950   22.37   -1.27   -2.70   0.000   0.200   0.000    0.00
   9.000   22.56   -1.86   -3.04   0.000   0.200   0.000    0.00
   9.050   22.42   -3.00   -2.80   0.000   0.200   0.000    0.00
   9.100   22.14   -2.75   -2.86   0.000   0.200   0.000    0.00
   9.150   22.43   -3.52   -2.14   0.000   0.200   0.000    0.00
   9.200   22.14   -2.87   -1.83   0.000   0.200   0.000    0.00
   9.250   21.85   -3.68   -1.28   0.000   0.200   0.000    0.00
   9.300   21.73   -3.78   -1.02   0.000   0.200   0.000    0.00
   9.350   20.99   -3.22   -0.75   0.000   0.200   0.000    0.00
   9.400   21.45   -1.81   -0.93   0.000   0.200   0.000    0.00
   9.450   21.57   -1.43   -0.83   0.000   0.200   0.000    0.00
   9.500   21.59   -4.12   -1.26   0.000   0.200   0.000    0.00
   9.550   21.65   -4.15   -1.09   0.000   0.200   0.000    0.00
   9.600   21.14   -4.60   -0.08   0.000   0.200   0.000    0.00
   9.650   21.39   -3.19    0.78   0.000   0.200   0.000    0.00
   9.700   20.96   -1.93    0.27   0.000   0.200   0.000    0.00
   9.750   21.10   -3.17    0.68   0.000   0.200   0.000    0.00
   9.800   21.26   -2.46    1.16   0.000   0.200   0.000    0.00
   9.850   21.95   -1.44    1.32   0.000   0.200   0.000    0.00
   9.900   22.06   -2.95    1.39   0.000   0.200   0.000    0.00
   9.950   21.43   -4.72    1.74   0.000   0.200   0.000    0.00
  10.000   20.96   -3.35    2.24   0.000   0.200   0.000    0.00
  10.050   21.09   -4.63    2.16   0.000   0.200   0.000    0.00
  10.100   21.00   -5.79    2.61   0.000   0.200   0.000    0.00
  10.150   22.11   -2.84    2.00   0.000   0.200   0.000    0.00
  10.200   22.43   -5.54    2.06   0.000   0.200   0.000    0.00
  10.250   22.47   -3.50    1.57   0.000   0.200   0.000    0.00
  10.300   22.20   -4.60    0.69   0.000   0.200   0.000    0.00
  10.350   22.15   -5.24    0.31   0.000   0.200   0.000    0.00
  10.400   22.13   -3.52    0.44   0.000   0.200   0.000    0.00
  10.450   22.21   -4.29    0.44   0.000   0.200   0.000    0.00
  10.500   22.06   -5.78   -0.34   0.000   0.200   0.000    0.00
  10.550   21.61   -6.72   -0.42   0.000   0.200   0.000    0.00
  10.600   22.03   -6.40   -1.26   0.000   0.200   0.000    0.00
  10.650   21.99   -7.49   -0.74   0.000   0.200   0.000    0.00
  10.700   21.61   -6.45   -0.61   0.000   0.200   0.000    0.00
  10.750   21.51   -6.40   -1.27   0.000   0.200   0.000    0.00
  10.800   21.46   -3.91   -0.88   0.000   0.200   0.000    0.00
  10.850   20.46   -3.73   -0.37   0.000   0.200   0.000    0.00
  10.900   20.40   -4.05   -0.06   0.000   0.200   0.000    0.00
  10.950   20.79   -3.93   -0.42   0.000   0.200   0.000    0.00
  11.000   20.75   -3.70   -0.10   0.000   0.200   0.000    0.00
  11.050   20.04   -3.84   -0.85   0.000   0.200   0.000    0.00
  11.100   20.35   -3.88   -0.84   0.000   0.200   0.000    0.00
  11.150   19.62   -2.77   -0.43   0.000   0.200   0.000    0.00
  11.200   19.23   -3.95    0.13   0.000   0.200   0.000    0.00
  11.250   19.66   -4.95    0.85   0.000   0.200   0.000    0.00
  11.300   19.64   -7.13    1.44   0.000   0.200   0.000    0.00
  11.350   20.14   -6.11    2.24   0.000   0.200   0.000    0.00
  11.400   20.00   -6.48    1.44   0.000   0.200   0.000    0.00
  11.450   19.97   -5.95    1.49   0.000   0.200   0.000    0.00
  11.500   20.08   -4.89    1.75   0.000   0.200   0.000    0.00
  11.550   20.33   -4.41    1.26   0.000   0.200   0.000    0.00
  11.600   19.78   -3.16    1.72   0.000   0.200   0.000    0.00
  11.650   19.73   -2.53    1.22   0.000   0.200   0.000    0.00
  11.700   20.10   -1.62    0.78   0.000   0.200   0.000    0.00
  11.750   20.46   -1.89    1.02   0.000   0.200   0.000    0.00
  11.800   21.21   -2.00    1.74   0.000   0.200   0.000    0.00
  11.850   20.44   -0.89    1.38   0.000   0.200   0.000    0.00
  11.900   20.15   -0.54    1.32   0.000   0.200   0.000    0.00
  11.950   20.78   -1.78    1.21   0.000   0.200   0.000    0.00
  12.000   20.14   -2.40    1.03   0.000   0.200   0.000    0.00
  12.050   20.73   -2.43    0.23   0.000   0.200   0.000    0.00
  12.100   20.80   -5.37    0.54   0.000   0.200   0.000    0.00
  12.150   21.36   -3.36   -0.13   0.000   0.200   0.000    0.00
  12.200   20.91   -3.25    0.12   0.000   0.200   0.000    0.00
  12.250   20.90    0.42    0.35   0.000   0.200   0.000    0.00
  12.300   20.85   -2.38   -0.24   0.000   0.200   0.000    0.00
  12.350   20.83   -2.51    0.56   0.000   0.200   0.000    0.00
  12.400   20.86   -3.33    0.53   0.000   0.200   0.000    0.00
  12.450   20.95   -3.77    1.17   0.000   0.200   0.000    0.00
  12.500   20.93   -4.64    0.81   0.000   0.200   0.000    0.00
  12.550   21.54   -3.08    1.17   0.000   0.200   0.000    0.00
  12.600   21.77   -3.70    0.75   0.000   0.200   0.000    0.00
  12.650   22.04   -3.37    0.74   0.000   0.200   0.000    0.00
  12.700   21.92   -3.37    0.62   0.000   0.200   0.000    0.00
  12.750   21.96   -4.29    1.36   0.000   0.200   0.000    0.00
  12.800   21.07   -3.88    1.02   0.000   0.200   0.000    0.00
  12.850   21.34   -3.00    1.12   0.000   0.200   0.000    0.00
  12.900   21.09   -2.77    0.77   0.000   0.200   0.000    0.00
  12.950   21.27   -1.25   -0.01   0.000   0.200   0.000    0.00
  13.000   20.99    0.23    1.02   0.000   0.200   0.000    0.00
  13.050   21.60   -2.32    0.65   0.000   0.200   0.000    0.00
  13.100   22.20   -4.94    0.32   0.000   0.200   0.000    0.00
  13.150   22.40   -3.45   -0.16   0.000   0.200   0.000    0.00
  13.200   22.25   -4.27   -0.01   0.000   0.200   0.000    0.00
  13.250   22.85   -5.03   -0.24   0.000   0.200   0.000    0.00
  13.300   23.05   -4.73    0.05   0.000   0.200   0.000    0.00
  13.350   22.93   -4.64    0.15   0.000   0.200   0.000    0.00
  13.400   22.93   -3.51   -1.36   0.000   0.200   0.000    0.00
  13.450   23.15   -3.96   -1.81   0.000   0.200   0.000    0.00
  13.500   22.34   -2.95   -1.41   0.000   0.200   0.000    0.00
  13.550   21.74   -4.55   -0.65   0.000   0.200   0.000    0.00
  13.600   22.00   -4.09   -0.02   0.000   0.200   0.000    0.00
  13.650   21.76   -6.47   -0.24   0.000   0.200   0.000    0.00
  13.700   21.71   -4.86   -0.56   0.000   0.200   0.000    0.00
  13.750   22.03   -5.07   -0.09   0.000   0.200   0.000    0.00
  13.800   22.28   -3.08    0.67   0.000   0.200   0.000    0.00
  13.850   22.51   -4.65   -0.42   0.000   0.200   0.000    0.00
  13.900   21.92   -7.19    0.68   0.000   0.200   0.000    0.00
  13.950   21.78   -6.32    1.45   0.000   0.200   0.000    0.00
  14.000   21.55   -8.52    0.70   0.000   0.200   0.000    0.00
  14.050   21.15   -7.19    0.13   0.000   0.200   0.000    0.00
  14.100   20.50   -4.69    0.06   0.000   0.200   0.000    0.00
  14.150   20.54   -5.24    0.04   0.000   0.200   0.000    0.00
  14.200   20.90   -1.70   -0.12   0.000   0.200   0.000    0.00
  14.250   20.80   -0.70    0.38   0.000   0.200   0.000    0.00
  14.300   21.73   -0.60    0.13   0.000   0.200   0.000    0.00
  14.350   21.77   -2.53    0.13   0.000   0.200   0.000    0.00
  14.400   21.38   -0.73   -0.42   0.000   0.200   0.000    0.00
  14.450   21.62   -3.02   -0.76   0.000   0.200   0.000    0.00
  14.500   22.42   -3.73   -0.31   0.000   0.200   0.000    0.00
  14.550   22.17   -3.58   -0.48   0.000   0.200   0.000    0.00
  14.600   21.63   -4.42   -0.19   0.000   0.200   0.000    0.00
  14.650   21.81   -4.89   -0.58   0.000   0.200   0.000    0.00
  14.700   22.17   -4.10   -0.52   0.000   0.200   0.000    0.00
  14.750   22.55   -5.03   -0.48   0.000   0.200   0.000    0.00
  14.800   21.99   -6.08   -0.72   0.000   0.200   0.000    0.00
  14.850   21.72   -4.16    0.39   0.000   0.200   0.000    0.00
  14.900   21.33   -4.28    0.89   0.000   0.200   0.000    0.00
  14.950   21.78   -4.21    0.09   0.000   0.200   0.000    0.00
  15.000   21.75   -4.40   -0.11   0.000   0.200   0.000    0.00
  15.050   21.79   -5.63    0.19   0.000   0.200   0.000    0.00
  15.100   22.35   -5.45   -0.93   0.000   0.200   0.000    0.00
  15.150   22.49   -2.03   -0.38   0.000   0.200   0.000    0.00
  15.200   22.67   -3.19   -0.02   0.000   0.200   0.000    0.00
  15.250   22.60   -2.93   -0.60   0.000   0.200   0.000    0.00
  15.300   22.68   -4.91   -0.71   0.000   0.200   0.000    0.00
  15.350   22.77   -5.77   -0.68   0.000   0.200   0.000    0.00
  15.400   23.38   -4.73    0.04   0.000   0.200   0.000    0.00
  15.450   23.07   -6.36   -0.04   0.000   0.200   0.000    0.00
  15.500   22.27   -4.89   -1.03   0.000   0.200   0.000    0.00
  15.550   23.30   -5.99   -0.79   0.000   0.200   0.000    0.00
  15.600   23.72   -4.81    0.09   0.000   0.200   0.000    0.00
  15.650   23.32   -5.51   -0.26   0.000   0.200   0.000    0.00
  15.700   23.25   -4.67   -0.65   0.000   0.200   0.000    0.00
  15.750   22.74   -7.86   -0.25   0.000   0.200   0.000    0.00
  15.800   22.44   -6.61   -0.46   0.000   0.200   0.000    0.00
  15.850   22.44   -5.61   -1.10   0.000   0.200   0.000    0.00
  15.900   22.56   -6.74   -0.74   0.000   0.200   0.000    0.00
  15.950   22.69   -9.19   -0.90   0.000   0.200   0.000    0.00
  16.000   22.54   -8.93   -0.63   0.000   0.200   0.000    0.00
  16.050   22.30   -8.05   -0.45   0.000   0.200   0.000    0.00
  16.100   21.22   -6.05   -0.03   0.000   0.200   0.000    0.00
  16.150   21.37   -5.25   -0.45   0.000   0.200   0.000    0.00
  16.200   21.51   -5.04   -0.46   0.000   0.200   0.000    0.00
  16.250   22.29   -3.64   -1.39   0.000   0.200   0.000    0.00
  16.300   22.72   -4.17   -0.89   0.000   0.200   0.000    0.00
  16.350   22.01   -4.59   -0.93   0.000   0.200   0.000    0.00
  16.400   21.71   -5.77   -0.36   0.000   0.200   0.000    0.00
  16.450   21.74   -5.34    0.15   0.000   0.200   0.000    0.00
  16.500   21.87   -2.64   -0.07   0.000   0.200   0.000    0.00
  16.550   21.54   -2.69    1.09   0.000   0.200   0.000    0.00
  16.600   22.49   -5.04    1.11   0.000   0.200   0.000    0.00
  16.650   22.62   -6.78    0.59   0.000   0.200   0.000    0.00
  16.700   22.93   -6.42    1.05   0.000   0.200   0.000    0.00
  16.750   22.68   -5.77    1.04   0.000   0.200   0.000    0.00
  16.800   23.01   -4.15    1.37   0.000   0.200   0.000    0.00
  16.850   22.84   -3.71    0.47   0.000   0.200   0.000    0.00
  16.900   23.00   -4.87   -0.10   0.000   0.200   0.000    0.00
  16.950   23.17   -5.65   -0.09   0.000   0.200   0.000    0.00
  17.000   22.58   -5.76    0.93   0.000   0.200   0.000    0.00
  17.050   22.24   -4.54    0.93   0.000   0.200   0.000    0.00
  17.100   22.26   -5.00    0.39   0.000   0.200   0.000    0.00
  17.150   22.33   -5.24    1.08   0.000   0.200   0.000    0.00
  17.200   22.72   -5.23    0.90   0.000   0.200   0.000    0.00
  17.250   22.19   -4.04    1.25   0.000   0.200   0.000    0.00
  17.300   22.57   -3.08    0.90   0.000   0.200   0.000    0.00
  17.350   22.80   -3.31    1.00   0.000   0.200   0.000    0.00
  17.400   23.36   -3.18    0.73   0.000   0.200   0.000    0.00
  17.450   23.52   -2.93    0.21   0.000   0.200   0.000    0.00
  17.500   22.37   -3.49    0.14   0.000   0.200   0.000    0.00
  17.550   22.55   -2.66   -0.20   0.000   0.200   0.000    0.00
  17.600   22.47   -1.89    0.07   0.000   0.200   0.000    0.00
  17.650   22.37   -1.72   -0.47   0.000   0.200   0.000    0.00
  17.700   21.72   -2.45   -1.72   0.000   0.200   0.000    0.00
  17.750   21.73   -2.55   -1.50   0.000   0.200   0.000    0.00
  17.800   21.84   -2.53   -1.13   0.000   0.200   0.000    0.00
  17.850   21.80   -5.32   -0.17   0.000   0.200   0.000    0.00
  17.900   21.87   -3.91    0.55   0.000   0.200   0.000    0.00
  17.950   22.82   -3.30    1.30   0.000   0.200   0.000    0.00
  18.000   22.15   -3.85    1.30   0.000   0.200   0.000    0.00
  18.050   21.61   -6.80    1.69   0.000   0.200   0.000    0.00
  18.100   21.67   -7.67    1.66   0.000   0.200   0.000    0.00
  18.150   21.33   -7.26    2.09   0.000   0.200   0.000    0.00
  18.200   21.83   -6.85    1.63   0.000   0.200   0.000    0.00
  18.250   23.22   -7.09    1.04   0.000   0.200   0.000    0.00
  18.300   23.26   -7.26    1.78   0.000   0.200   0.000    0.00
  18.350   23.54   -8.21    2.40   0.000   0.200   0.000    0.00
  18.400   23.38  -11.24    2.44   0.000   0.200   0.000    0.00
  18.450   23.42   -9.17    3.07   0.000   0.200   0.000    0.00
  18.500   24.08   -8.16    2.37   0.000   0.200   0.000    0.00
  18.550   23.28   -8.89    2.03   0.000   0.200   0.000    0.00
  18.600   23.96   -8.11    2.46   0.000   0.200   0.000    0.00
  18.650   24.04   -8.02    3.04   0.000   0.200   0.000    0.00
  18.700   23.76   -8.98    1.70   0.000   0.200   0.000    0.00
  18.750   24.09   -7.25    1.43   0.000   0.200   0.000    0.00
  18.800   23.51   -7.87    1.45   0.000   0.200   0.000    0.00
  18.850   23.07   -6.42    0.82   0.000   0.200   0.000    0.00
  18.900   22.33   -8.66    1.70   0.000   0.200   0.000    0.00
  18.950   21.93   -6.78    1.69   0.000   0.200   0.000    0.00
  19.000   21.95   -3.90    1.44   0.000   0.200   0.000    0.00
  19.050   22.48   -5.61    0.90   0.000   0.200   0.000    0.00
  19.100   22.54   -3.58    0.28   0.000   0.200   0.000    0.00
  19.150   22.80   -3.73    0.44   0.000   0.200   0.000    0.00
  19.200   23.33   -3.70    0.85   0.000   0.200   0.000    0.00
  19.250   23.81   -3.30    0.88   0.000   0.200   0.000    0.00
  19.300   22.97   -4.21    0.41   0.000   0.200   0.000    0.00
  19.350   22.98   -5.26   -0.43   0.000   0.200   0.000    0.00
  19.400   22.79   -4.20    0.67   0.000   0.200   0.000    0.00
  19.450   22.99   -4.99    0.93   0.000   0.200   0.000    0.00
  19.500   23.53   -4.59    1.27   0.000   0.200   0.000    0.00
  19.550   23.39   -3.36    1.88   0.000   0.200   0.000    0.00
  19.600   24.15   -3.91    1.50   0.000   0.200   0.000    0.00
  19.650   24.13   -4.42    1.49   0.000   0.200   0.000    0.00
  19.700   23.83   -1.82    1.59   0.000   0.200   0.000    0.00
  19.750   23.87   -2.12    1.65   0.000   0.200   0.000    0.00
  19.800   24.91   -3.67    1.03   0.000   0.200   0.000    0.00
  19.850   24.49   -3.56    1.15   0.000   0.200   0.000    0.00
  19.900   24.60   -4.62    0.33   0.000   0.200   0.000    0.00
  19.950   24.44   -4.26    0.03   0.000   0.200   0.000    0.00
  20.000   24.80   -5.43    0.31   0.000   0.200   0.000    0.00
  20.050   24.19   -5.45   -0.23   0.000   0.200   0.000    0.00
  20.100   24.27   -3.90    0.03   0.000   0.200   0.000    0.00
  20.150   23.86   -4.43    0.60   0.000   0.200   0.000    0.00
  20.200   23.80   -3.98    1.30   0.000   0.200   0.000    0.00
  20.250   24.04   -5.34    0.05   0.000   0.200   0.000    0.00
  20.300   24.75   -4.31    0.54   0.000   0.200   0.000    0.00
  20.350   25.13   -4.95    1.09   0.000   0.200   0.000    0.00
  20.400   25.17   -4.93    1.11   0.000   0.200   0.000    0.00
  20.450   24.67   -3.23    2.12   0.000   0.200   0.000    0.00
  20.500   24.95   -2.88    1.87   0.000   0.200   0.000    0.00
  20.550   25.59   -5.08    1.51   0.000   0.200   0.000    0.00
  20.600   25.92   -6.27    1.96   0.000   0.200   0.000    0.00
  20.650   25.59   -6.89    1.77   0.000   0.200   0.000    0.00
  20.700   25.70   -6.02    1.54   0.000   0.200   0.000    0.00
  20.750   25.86   -4.85    2.09   0.000   0.200   0.000    0.00
  20.800   25.85   -5.80    1.80   0.000   0.200   0.000    0.00
  20.850   25.46   -5.25    1.13   0.000   0.200   0.000    0.00
  20.900   25.79   -4.96    0.92   0.000   0.200   0.000    0.00
  20.950   26.15   -5.51    0.53   0.000   0.200   0.000    0.00
  21.000   25.23   -4.15    0.56   0.000   0.200   0.000    0.00
  21.050   24.45   -4.30   -0.15   0.000   0.200   0.000    0.00
  21.100   24.12   -4.73   -0.05   0.000   0.200   0.000    0.00
  21.150   24.49   -5.93   -1.14   0.000   0.200   0.000    0.00
  21.200   24.13   -6.72   -0.75   0.000   0.200   0.000    0.00
  21.250   24.42   -6.99   -0.59   0.000   0.200   0.000    0.00
  21.300   24.95   -8.25   -0.46   0.000   0.200   0.000    0.00
  21.350   25.28   -8.82   -0.05   0.000   0.200   0.000    0.00
  21.400   24.91   -7.54    0.04   0.000   0.200   0.000    0.00
  21.450   24.83   -9.53    0.27   0.000   0.200   0.000    0.00
  21.500   24.37  -10.94    0.75   0.000   0.200   0.000    0.00
  21.550   24.20   -8.90    0.44   0.000   0.200   0.000    0.00
  21.600   24.76   -9.22    0.36   0.000   0.200   0.000    0.00
  21.650   25.39  -10.04    0.75   0.000   0.200   0.000    0.00
  21.700   25.40   -9.59    0.18   0.000   0.200   0.000    0.00
  21.750   24.79   -8.81   -0.02   0.000   0.200   0.000    0.00
  21.800   24.83   -8.60    0.21   0.000   0.200   0.000    0.00
  21.850   25.54   -7.66    0.45   0.000   0.200   0.000    0.00
  21.900   26.75   -7.35   -0.52   0.000   0.200   0.000    0.00
  21.950   26.16   -7.78   -0.73   0.000   0.200   0.000    0.00
  22.000   25.53   -7.49   -1.11   0.000   0.200   0.000    0.00
  22.050   24.75   -7.53   -1.17   0.000   0.200   0.000    0.00
  22.100   24.43   -7.54   -0.62   0.000   0.200   0.000    0.00
  22.150   23.83   -9.48   -0.52   0.000   0.200   0.000    0.00
  22.200   24.26   -8.77   -0.43   0.000   0.200   0.000    0.00
  22.250   23.31   -7.28   -1.10   0.000   0.200   0.000    0.00
  22.300   23.00   -8.36   -0.71   0.000   0.200   0.000    0.00
  22.350   23.14   -8.33   -0.23   0.000   0.200   0.000    0.00