! This hub-height wind-speed file was generated by TurbSim (v1.06.00, 21-Sep-2012) on 03-Feb-2018 at 23:35:37.
!
! The requested statistics for this data were:
!    Mean Total Wind Speed =   15.000 m/s
!    Turbulence Intensity  =   15.727%
!
!   Time  HorSpd  WndDir  VerSpd  HorShr  VerShr  LnVShr  GstSpd
!  (sec)   (m/s)   (deg)   (m/s)     (-)     (-)     (-)   (m/s)
   0.000   17.78   -3.16    0.90   0.000   0.200   0.000    0.00
   0.050   18.18   -1.67    1.16   0.000   0.200   0.000    0.00
   0.100   17.69   -0.49    1.02   0.000   0.200   0.000    0.00
   0.150   18.17   -1.19    1.21   0.000   0.200   0.000    0.00
   0.200   18.42   -2.13    0.78   0.000   0.200   0.000    0.00
   0.250   18.80   -0.37    1.23   0.000   0.200   0.000    0.00
   0.300   19.39    1.51    1.19   0.000   0.200   0.000    0.00
   0.350   19.41   -0.66    1.65   0.000   0.200   0.000    0.00
   0.400   20.22   -1.18    2.01   0.000   0.200   0.000    0.00
   0.450   19.91   -0.75    2.03   0.000   0.200   0.000    0.00
   0.500   19.35    0.85    2.08   0.000   0.200   0.000    0.00
   0.550   19.29   -0.87    2.54   0.000   0.200   0.000    0.00
   0.600   18.99   -0.23    2.84   0.000   0.200   0.000    0.00
   0.650   18.81    1.75    2.52   0.000   0.200   0.000    0.00
   0.700   18.82   -0.99    2.05   0.000   0.200   0.000    0.00
   0.750   18.74   -1.37    2.15   0.000   0.200   0.000    0.00
   0.800   18.32   -0.54    1.52   0.000   0.200   0.000    0.00
   0.850   18.74    0.91    1.65   0.000   0.200   0.000    0.00
   0.900   18.86    2.85    1.33   0.000   0.200   0.000    0.00
   0.950   19.09    2.41    1.64   0.000   0.200   0.000    0.00
   1.000   18.07    2.18    0.42   0.000   0.200   0.000    0.00
   1.050   17.38   -1.98    0.38   0.000   0.200   0.000    0.00
   1.100   18.04   -3.05    0.23   0.000   0.200   0.000    0.00
   1.150   17.97   -2.04    0.24   0.000   0.200   0.000    0.00
   1.200   17.47   -2.98   -0.18   0.000   0.200   0.000    0.00
   1.250   17.09   -5.32   -0.10   0.000   0.200   0.000    0.00
   1.300   17.34   -5.27    0.36   0.000   0.200   0.000    0.00
   1.350   16.68   -5.81   -0.67   0.000   0.200   0.000    0.00
   1.400   16.23   -5.68   -0.70   0.000   0.200   0.000    0.00
   1.450   16.29   -5.87   -0.74   0.000   0.200   0.000    0.00
   1.500   17.06   -6.72   -0.75   0.000   0.200   0.000    0.00
   1.550   16.83   -5.48   -0.74   0.000   0.200   0.000    0.00
   1.600   17.03   -7.10   -0.56   0.000   0.200   0.000    0.00
   1.650   16.84   -5.21   -0.05   0.000   0.200   0.000    0.00
   1.700   16.91   -5.95   -0.13   0.000   0.200   0.000    0.00
   1.750   16.66   -5.30    0.42   0.000   0.200   0.000    0.00
   1.800   16.88   -4.77   -0.54   0.000   0.200   0.000    0.00
   1.850   17.17   -7.42   -0.05   0.000   0.200   0.000    0.00
   1.900   17.45   -6.15   -0.07   0.000   0.200   0.000    0.00
   1.950   17.44   -6.57   -1.12   0.000   0.200   0.000    0.00
   2.000   17.33   -6.30   -1.57   0.000   0.200   0.000    0.00
   2.050   17.23   -4.71   -1.40   0.000   0.200   0.000    0.00
   2.100   18.33   -4.97   -1.26   0.000   0.200   0.000    0.00
   2.150   18.00   -4.59   -1.10   0.000   0.200   0.000    0.00
   2.200   17.76   -4.18   -0.69   0.000   0.200   0.000    0.00
   2.250   18.03   -5.46   -0.66   0.000   0.200   0.000    0.00
   2.300   17.50   -6.37   -0.21   0.000   0.200   0.000    0.00
   2.350   17.02   -6.64   -0.07   0.000   0.200   0.000    0.00
   2.400   16.89   -5.59    0.40   0.000   0.200   0.000    0.00
   2.450   16.93   -6.34    0.26   0.000   0.200   0.000    0.00
   2.500   16.82   -3.54    0.02   0.000   0.200   0.000    0.00
   2.550   17.14   -1.93   -0.01   0.000   0.200   0.000    0.00
   2.600   17.64   -2.36    0.01   0.000   0.200   0.000    0.00
   2.650   17.93   -1.55    0.20   0.000   0.200   0.000    0.00
   2.700   18.39   -1.89   -0.19   0.000   0.200   0.000    0.00
   2.750   17.97   -1.89   -0.01   0.000   0.200   0.000    0.00
   2.800   18.67   -1.70    0.99   0.000   0.200   0.000    0.00
   2.850   18.00   -0.24    1.65   0.000   0.200   0.000    0.00
   2.900   18.23    0.91    1.48   0.000   0.200   0.000    0.00
   2.950   17.77    0.12    2.19   0.000   0.200   0.000    0.00
   3.000   17.51    1.90    1.28   0.000   0.200   0.000    0.00
   3.050   17.05    4.08    0.95   0.000   0.200   0.000    0.00
   3.100   16.71    5.51    1.30   0.000   0.200   0.000    0.00
   3.150   17.25    6.41    1.07   0.000   0.200   0.000    0.00
   3.200   17.65    3.65    0.58   0.000   0.200   0.000    0.00
   3.250   17.42    2.06    0.92   0.000   0.200   0.000    0.00
   3.300   17.61    1.63    1.69   0.000   0.200   0.000    0.00
   3.350   17.88    2.95    1.76   0.000   0.200   0.000    0.00
   3.400   17.94    2.95    1.38   0.000   0.200   0.000    0.00
   3.450   17.48    2.38    1.41   0.000   0.200   0.000    0.00
   3.500   16.80    1.24    1.88   0.000   0.200   0.000    0.00
   3.550   16.94    0.20    1.44   0.000   0.200   0.000    0.00
   3.600   16.72   -0.73    1.02   0.000   0.200   0.000    0.00
   3.650   17.15   -1.27    0.84   0.000   0.200   0.000    0.00
   3.700   17.62   -1.77    0.73   0.000   0.200   0.000    0.00
   3.750   17.03   -0.79    0.30   0.000   0.200   0.000    0.00
   3.800   17.49   -1.37    0.26   0.000   0.200   0.000    0.00
   3.850   17.72   -0.92    0.37   0.000   0.200   0.000    0.00
   3.900   17.50    0.44    0.35   0.000   0.200   0.000    0.00
   3.950   17.79    0.04    0.68   0.000   0.200   0.000    0.00
   4.000   18.18    0.45    1.19   0.000   0.200   0.000    0.00
   4.050   18.01   -0.95    0.16   0.000   0.200   0.000    0.00
   4.100   17.17   -1.30    0.17   0.000   0.200   0.000    0.00
   4.150   16.98   -0.20    0.13   0.000   0.200   0.000    0.00
   4.200   17.48    2.14    0.28   0.000   0.200   0.000    0.00
   4.250   17.74    0.44    0.18   0.000   0.200   0.000    0.00
   4.300   17.29   -0.78   -0.08   0.000   0.200   0.000    0.00
   4.350   17.60   -1.79   -0.37   0.000   0.200   0.000    0.00
   4.400   17.22   -0.65   -0.39   0.000   0.200   0.000    0.00
   4.450   17.03   -0.61    0.03   0.000   0.200   0.000    0.00
   4.500   17.27    0.46    0.47   0.000   0.200   0.000    0.00
   4.550   16.70   -0.07    0.23   0.000   0.200   0.000    0.00
   4.600   17.15   -0.26    0.24   0.000   0.200   0.000    0.00
   4.650   17.52   -1.35   -0.14   0.000   0.200   0.000    0.00
   4.700   17.48   -1.05    0.07   0.000   0.200   0.000    0.00
   4.750   18.41   -1.86    1.00   0.000   0.200   0.000    0.00
   4.800   18.65   -0.47    0.31   0.000   0.200   0.000    0.00
   4.850   19.23   -1.54   -0.19   0.000   0.200   0.000    0.00
   4.900   18.79   -1.29    0.47   0.000   0.200   0.000    0.00
   4.950   18.73   -3.55    0.47   0.000   0.200   0.000    0.00
   5.000   19.06   -4.61    1.57   0.000   0.200   0.000    0.00
   5.050   19.17   -3.94    1.86   0.000   0.200   0.000    0.00
   5.100   19.53   -3.99    2.40   0.000   0.200   0.000    0.00
   5.150   19.73   -1.76    1.67   0.000   0.200   0.000    0.00
   5.200   19.50   -5.18    2.11   0.000   0.200   0.000    0.00
   5.250   19.40   -4.51    1.35   0.000   0.200   0.000    0.00
   5.300   19.14   -4.12    1.05   0.000   0.200   0.000    0.00
   5.350   19.37   -4.04    1.19   0.000   0.200   0.000    0.00
   5.400   19.05   -4.18    1.39   0.000   0.200   0.000    0.00
   5.450   19.40   -5.03    0.93   0.000   0.200   0.000    0.00
   5.500   19.27   -4.87    0.54   0.000   0.200   0.000    0.00
   5.550   18.48   -5.28    0.08   0.000   0.200   0.000    0.00
   5.600   18.16   -4.66    0.84   0.000   0.200   0.000    0.00
   5.650   18.03   -5.48    0.79   0.000   0.200   0.000    0.00
   5.700   17.96   -4.26    0.26   0.000   0.200   0.000    0.00
   5.750   18.68   -3.35   -0.07   0.000   0.200   0.000    0.00
   5.800   17.77   -5.67    0.12   0.000   0.200   0.000    0.00
   5.850   18.34   -5.68    0.28   0.000   0.200   0.000    0.00
   5.900   18.65   -5.48    0.96   0.000   0.200   0.000    0.00
   5.950   18.47   -5.03    1.17   0.000   0.200   0.000    0.00
   6.000   18.30   -3.12    1.22   0.000   0.200   0.000    0.00
   6.050   17.82   -0.90    1.16   0.000   0.200   0.000    0.00
   6.100   18.02   -1.98    1.08   0.000   0.200   0.000    0.00
   6.150   18.30   -2.61    0.87   0.000   0.200   0.000    0.00
   6.200   17.93   -3.13    0.75   0.000   0.200   0.000    0.00
   6.250   18.37   -5.43    0.62   0.000   0.200   0.000    0.00
   6.300   17.57   -3.94    0.71   0.000   0.200   0.000    0.00
   6.350   17.26   -3.81    1.25   0.000   0.200   0.000    0.00
   6.400   17.08   -6.54    1.70   0.000   0.200   0.000    0.00
   6.450   17.42   -6.36    1.39   0.000   0.200   0.000    0.00
   6.500   18.30   -7.44    0.93   0.000   0.200   0.000    0.00
   6.550   17.89   -7.56    0.56   0.000   0.200   0.000    0.00
   6.600   17.78   -6.13    0.00   0.000   0.200   0.000    0.00
   6.650   17.19   -8.24   -0.61   0.000   0.200   0.000    0.00
   6.700   16.97   -7.63   -0.48   0.000   0.200   0.000    0.00
   6.750   17.29   -4.32    0.13   0.000   0.200   0.000    0.00
   6.800   18.11   -6.64    0.56   0.000   0.200   0.000    0.00
   6.850   17.59   -7.48    1.09   0.000   0.200   0.000    0.00
   6.900   17.43   -8.04    0.29   0.000   0.200   0.000    0.00
   6.950   17.24   -6.86   -0.24   0.000   0.200   0.000    0.00
   7.000   18.00   -5.59   -0.04   0.000   0.200   0.000    0.00
   7.050   17.85   -4.55    0.77   0.000   0.200   0.000    0.00
   7.100   17.79   -4.31    0.43   0.000   0.200   0.000    0.00
   7.150   17.42   -5.40    0.05   0.000   0.200   0.000    0.00
   7.200   17.01   -5.19    0.14   0.000   0.200   0.000    0.00
   7.250   16.31   -5.38   -0.57   0.000   0.200   0.000    0.00
   7.300   15.45   -5.58    0.27   0.000   0.200   0.000    0.00
   7.350   15.17   -7.25   -0.07   0.000   0.200   0.000    0.00
   7.400   15.17   -5.90    0.02   0.000   0.200   0.000    0.00
   7.450   14.90   -2.99   -0.24   0.000   0.200   0.000    0.00
   7.500   15.10   -2.22    0.29   0.000   0.200   0.000    0.00
   7.550   15.21   -4.76    0.46   0.000   0.200   0.000    0.00
   7.600   15.49   -2.30    0.27   0.000   0.200   0.000    0.00
   7.650   15.98   -3.08   -0.38   0.000   0.200   0.000    0.00
   7.700   16.51   -3.54   -0.74   0.000   0.200   0.000    0.00
   7.750   16.81   -3.22   -0.79   0.000   0.200   0.000    0.00
   7.800   16.54   -3.38   -0.84   0.000   0.200   0.000    0.00
   7.850   15.97   -4.20   -1.26   0.000   0.200   0.000    0.00
   7.900   15.55   -4.43   -1.65   0.000   0.200   0.000    0.00
   7.950   16.02   -5.60   -1.28   0.000   0.200   0.000    0.00
   8.000   16.91   -6.40   -0.86   0.000   0.200   0.000    0.00
   8.050   17.42   -8.38   -1.06   0.000   0.200   0.000    0.00
   8.100   17.25   -9.41   -1.10   0.000   0.200   0.000    0.00
   8.150   17.46  -11.51   -1.83   0.000   0.200   0.000    0.00
   8.200   18.05  -12.22   -1.74   0.000   0.200   0.000    0.00
   8.250   17.56  -10.52   -2.90   0.000   0.200   0.000    0.00
   8.300   17.66   -9.83   -3.18   0.000   0.200   0.000    0.00
   8.350   17.94  -10.65   -2.85   0.000   0.200   0.000    0.00
   8.400   18.38  -10.43   -2.28   0.000   0.200   0.000    0.00
   8.450   18.41  -10.22   -2.34   0.000   0.200   0.000    0.00
   8.500   18.31  -11.13   -2.13   0.000   0.200   0.000    0.00
   8.550   18.56  -12.95   -1.82   0.000   0.200   0.000    0.00
   8.600   18.17  -14.11   -1.83   0.000   0.200   0.000    0.00
   8.650   18.76  -12.43   -1.28   0.000   0.200   0.000    0.00
   8.700   18.71   -9.11   -1.87   0.000   0.200   0.000    0.00
   8.750   18.30   -8.14   -1.78   0.000   0.200   0.000    0.00
   8.800   18.22   -9.07   -1.89   0.000   0.200   0.000    0.00
   8.850   18.76   -9.49   -0.65   0.000   0.200   0.000    0.00
   8.900   18.63  -10.40   -0.74   0.000   0.200   0.000    0.00
   8.950   18.54  -10.91   -0.69   0.000   0.200   0.000    0.00
   9.000   18.05  -11.67   -0.97   0.000   0.200   0.000    0.00
   9.050   17.69  -10.70   -0.21   0.000   0.200   0.000    0.00
   9.100   17.86   -7.69    0.15   0.000   0.200   0.000    0.00
   9.150   18.16   -6.34   -0.12   0.000   0.200   0.000    0.00
   9.200   18.36   -7.26   -0.18   0.000   0.200   0.000    0.00
   9.250   18.76   -8.23   -0.37   0.000   0.200   0.000    0.00
   9.300   18.99  -10.84    0.26   0.000   0.200   0.000    0.00
   9.350   18.29  -10.76    0.04   0.000   0.200   0.000    0.00
   9.400   18.41  -11.09   -0.19   0.000   0.200   0.000    0.00
   9.450   17.94  -13.14    0.24   0.000   0.200   0.000    0.00
   9.500   17.84  -14.24   -0.14   0.000   0.200   0.000    0.00
   9.550   18.13  -14.39   -0.55   0.000   0.200   0.000    0.00
   9.600   17.25  -14.82   -0.89   0.000   0.200   0.000    0.00
   9.650   17.18  -14.74   -0.40   0.000   0.200   0.000    0.00
   9.700   17.47  -14.29    0.76   0.000   0.200   0.000    0.00
   9.750   17.49  -14.70    0.75   0.000   0.200   0.000    0.00
   9.800   17.57  -14.36    0.81   0.000   0.200   0.000    0.00
   9.850   17.79  -13.35    0.06   0.000   0.200   0.000    0.00
   9.900   17.74  -11.46    0.05   0.000   0.200   0.000    0.00
   9.950   17.73   -9.19    0.48   0.000   0.200   0.000    0.00
  10.000   17.90   -7.69    0.81   0.000   0.200   0.000    0.00
  10.050   18.31   -7.10    1.03   0.000   0.200   0.000    0.00
  10.100   18.46   -7.78    1.11   0.000   0.200   0.000    0.00
  10.150   18.14   -7.45    0.98   0.000   0.200   0.000    0.00
  10.200   18.50   -9.93    0.84   0.000   0.200   0.000    0.00
  10.250   18.18   -8.16    0.48   0.000   0.200   0.000    0.00
  10.300   18.46   -7.30    0.89   0.000   0.200   0.000    0.00
  10.350   18.38   -9.24    0.14   0.000   0.200   0.000    0.00
  10.400   18.88  -10.70    0.33   0.000   0.200   0.000    0.00
  10.450   19.19  -11.33    0.00   0.000   0.200   0.000    0.00
  10.500   18.67  -12.06   -0.68   0.000   0.200   0.000    0.00
  10.550   18.57  -11.82   -0.37   0.000   0.200   0.000    0.00
  10.600   18.07  -10.64   -0.57   0.000   0.200   0.000    0.00
  10.650   18.22  -11.73   -1.09   0.000   0.200   0.000    0.00
  10.700   17.87  -10.79   -0.62   0.000   0.200   0.000    0.00
  10.750   17.89  -10.40   -0.69   0.000   0.200   0.000    0.00
  10.800   17.96  -10.79   -0.33   0.000   0.200   0.000    0.00
  10.850   17.72  -10.71   -0.62   0.000   0.200   0.000    0.00
  10.900   18.88  -12.33   -0.42   0.000   0.200   0.000    0.00
  10.950   18.84  -12.15    0.27   0.000   0.200   0.000    0.00
  11.000   19.39  -11.89   -0.14   0.000   0.200   0.000    0.00
  11.050   19.70  -13.31    0.14   0.000   0.200   0.000    0.00
  11.100   19.33  -11.67    0.15   0.000   0.200   0.000    0.00
  11.150   18.52  -11.24   -0.19   0.000   0.200   0.000    0.00
  11.200   18.62   -7.03    0.36   0.000   0.200   0.000    0.00
  11.250   18.47   -6.81    1.28   0.000   0.200   0.000    0.00
  11.300   19.19   -8.03    1.18   0.000   0.200   0.000    0.00
  11.350   19.13   -7.24    0.54   0.000   0.200   0.000    0.00
  11.400   18.81   -7.93    0.33   0.000   0.200   0.000    0.00
  11.450   19.09   -5.54    0.33   0.000   0.200   0.000    0.00
  11.500   19.04   -3.93    0.96   0.000   0.200   0.000    0.00
  11.550   18.74   -4.01    1.44   0.000   0.200   0.000    0.00
  11.600   18.30   -6.11    1.74   0.000   0.200   0.000    0.00
  11.650   18.37   -5.17    1.39   0.000   0.200   0.000    0.00
  11.700   18.34   -7.19    1.11   0.000   0.200   0.000    0.00
  11.750   18.58   -8.93    0.56   0.000   0.200   0.000    0.00
  11.800   18.31   -8.64    1.17   0.000   0.200   0.000    0.00
  11.850   18.23   -8.02    0.90   0.000   0.200   0.000    0.00
  11.900   18.57  -10.30    0.60   0.000   0.200   0.000    0.00
  11.950   18.46  -11.31   -0.14   0.000   0.200   0.000    0.00
  12.000   18.43  -12.29    0.03   0.000   0.200   0.000    0.00
  12.050   18.17  -13.66    0.50   0.000   0.200   0.000    0.00
  12.100   18.65  -14.61    0.06   0.000   0.200   0.000    0.00
  12.150   17.90  -13.07   -1.00   0.000   0.200   0.000    0.00
  12.200   17.75  -12.06    0.15   0.000   0.200   0.000    0.00
  12.250   17.68  -13.15    0.70   0.000   0.200   0.000    0.00
  12.300   18.24  -11.66    0.16   0.000   0.200   0.000    0.00
  12.350   18.75  -12.21    0.65   0.000   0.200   0.000    0.00
  12.400   18.57  -13.52    0.59   0.000   0.200   0.000    0.00
  12.450   17.71  -12.34    0.60   0.000   0.200   0.000    0.00
  12.500   18.12   -8.84    1.01   0.000   0.200   0.000    0.00
  12.550   18.54   -8.74    1.09   0.000   0.200   0.000    0.00
  12.600   17.63   -7.27    1.12   0.000   0.200   0.000    0.00
  12.650   17.23   -8.61    1.31   0.000   0.200   0.000    0.00
  12.700   17.19   -7.62    1.36   0.000   0.200   0.000    0.00
  12.750   16.95   -7.67    0.99   0.000   0.200   0.000    0.00
  12.800   17.39   -6.04    1.08   0.000   0.200   0.000    0.00
  12.850   17.69   -5.95    1.35   0.000   0.200   0.000    0.00
  12.900   17.97   -6.96    0.52   0.000   0.200   0.000    0.00
  12.950   18.02   -7.48   -0.22   0.000   0.200   0.000    0.00
  13.000   18.58   -5.62   -0.12   0.000   0.200   0.000    0.00
  13.050   18.82   -5.76    0.75   0.000   0.200   0.000    0.00
  13.100   18.52   -5.32    1.29   0.000   0.200   0.000    0.00
  13.150   18.64   -4.41    1.75   0.000   0.200   0.000    0.00
  13.200   19.16   -5.92    1.68   0.000   0.200   0.000    0.00
  13.250   18.60   -7.46    2.06   0.000   0.200   0.000    0.00
  13.300   18.65   -7.81    2.19   0.000   0.200   0.000    0.00
  13.350   18.57   -6.75    2.56   0.000   0.200   0.000    0.00
  13.400   19.13   -8.91    1.89   0.000   0.200   0.000    0.00
  13.450   19.28  -11.86    1.98   0.000   0.200   0.000    0.00
  13.500   19.08   -9.86    1.46   0.000   0.200   0.000    0.00
  13.550   19.30  -10.42    1.12   0.000   0.200   0.000    0.00
  13.600   18.87   -8.92    0.68   0.000   0.200   0.000    0.00
  13.650   18.96   -9.48    0.39   0.000   0.200   0.000    0.00
  13.700   18.90  -11.04    0.90   0.000   0.200   0.000    0.00
  13.750   18.23  -12.22    1.27   0.000   0.200   0.000    0.00
  13.800   18.24  -12.75    0.85   0.000   0.200   0.000    0.00
  13.850   18.10  -13.77    0.49   0.000   0.200   0.000    0.00
  13.900   18.51  -15.62   -0.24   0.000   0.200   0.000    0.00
  13.950   19.08  -13.91   -0.51   0.000   0.200   0.000    0.00
  14.000   19.46  -14.00   -0.36   0.000   0.200   0.000    0.00
  14.050   19.42  -12.85    0.04   0.000   0.200   0.000    0.00
  14.100   19.81  -14.27   -0.75   0.000   0.200   0.000    0.00
  14.150   20.05  -13.41   -0.28   0.000   0.200   0.000    0.00
  14.200   19.58  -13.48   -0.55   0.000   0.200   0.000    0.00
  14.250   18.99  -16.29   -0.63   0.000   0.200   0.000    0.00
  14.300   19.16  -14.37   -1.41   0.000   0.200   0.000    0.00
  14.350   19.41  -12.55   -1.18   0.000   0.200   0.000    0.00
  14.400   19.13  -11.93   -0.79   0.000   0.200   0.000    0.00
  14.450   19.21   -9.35   -1.57   0.000   0.200   0.000    0.00
  14.500   19.47  -10.32   -1.33   0.000   0.200   0.000    0.00
  14.550   19.56   -9.33   -0.64   0.000   0.200   0.000    0.00
  14.600   18.80   -8.85   -0.90   0.000   0.200   0.000    0.00
  14.650   18.79   -8.40   -0.25   0.000   0.200   0.000    0.00
  14.700   18.90   -8.31   -0.57   0.000   0.200   0.000    0.00
  14.750   19.73   -5.54   -0.19   0.000   0.200   0.000    0.00
  14.800   19.47   -6.44    0.32   0.000   0.200   0.000    0.00
  14.850   18.80   -6.00    0.19   0.000   0.200   0.000    0.00
  14.900   18.82   -6.53    0.11   0.000   0.200   0.000    0.00
  14.950   18.97   -5.68    0.92   0.000   0.200   0.000    0.00
  15.000   18.36   -5.29    0.90   0.000   0.200   0.000    0.00
  15.050   18.58   -7.06    0.36   0.000   0.200   0.000    0.00
  15.100   18.51   -5.95    0.22   0.000   0.200   0.000    0.00
  15.150   18.02   -4.61   -0.15   0.000   0.200   0.000    0.00
  15.200   17.91   -5.06   -0.12   0.000   0.200   0.000    0.00
  15.250   17.68   -6.39    0.13   0.000   0.200   0.000    0.00
  15.300   18.39   -6.94   -0.33   0.000   0.200   0.000    0.00
  15.350   18.19   -5.17   -0.77   0.000   0.200   0.000    0.00
  15.400   18.26   -4.26   -0.73   0.000   0.200   0.000    0.00
  15.450   17.99   -4.02   -0.73   0.000   0.200   0.000    0.00
  15.500   17.38   -5.84   -0.31   0.000   0.200   0.000    0.00
  15.550   17.52   -5.89   -0.66   0.000   0.200   0.000    0.00
  15.600   17.24   -6.37   -0.60   0.000   0.200   0.000    0.00
  15.650   16.62   -5.19   -0.69   0.000   0.200   0.000    0.00
  15.700   16.51   -5.92    0.69   0.000   0.200   0.000    0.00
  15.750   16.51   -7.08    0.43   0.000   0.200   0.000    0.00
  15.800   16.88   -9.03    0.58   0.000   0.200   0.000    0.00
  15.850   17.50   -7.95   -0.07   0.000   0.200   0.000    0.00
  15.900   17.53   -9.16   -0.27   0.000   0.200   0.000    0.00
  15.950   16.88  -12.07   -0.43   0.000   0.200   0.000    0.00
  16.000   16.59  -10.98    0.16   0.000   0.200   0.000    0.00
  16.050   16.49  -10.42    0.14   0.000   0.200   0.000    0.00
  16.100   16.90   -8.87   -0.03   0.000   0.200   0.000    0.00
  16.150   17.10   -6.66    0.05   0.000   0.200   0.000    0.00
  16.200   17.05   -7.66   -0.69   0.000   0.200   0.000    0.00
  16.250   17.40   -8.33   -0.56   0.000   0.200   0.000    0.00
  16.300   17.42   -8.54    0.02   0.000   0.200   0.000    0.00
  16.350   17.85   -5.92   -0.37   0.000   0.200   0.000    0.00
  16.400   16.86   -3.73   -0.40   0.000   0.200   0.000    0.00
  16.450   17.06   -5.46    0.03   0.000   0.200   0.000    0.00
  16.500   17.45   -5.92    0.25   0.000   0.200   0.000    0.00
  16.550   17.15   -4.93    1.05   0.000   0.200   0.000    0.00
  16.600   17.13   -4.33    0.14   0.000   0.200   0.000    0.00
  16.650   17.22   -4.80    0.25   0.000   0.200   0.000    0.00
  16.700   16.89   -4.48    0.78   0.000   0.200   0.000    0.00
  16.750   15.91   -5.69    0.60   0.000   0.200   0.000    0.00
  16.800   16.06   -5.83    0.38   0.000   0.200   0.000    0.00
  16.850   15.72   -5.41   -0.24   0.000   0.200   0.000    0.00
  16.900   15.62   -5.01   -0.60   0.000   0.200   0.000    0.00
  16.950   15.59   -2.08    0.09   0.000   0.200   0.000    0.00
  17.000   15.74   -1.60   -0.11   0.000   0.200   0.000    0.00
  17.050   15.72   -1.04    0.13   0.000   0.200   0.000    0.00
  17.100   16.06   -5.29    1.02   0.000   0.200   0.000    0.00
  17.150   16.46   -4.00    1.35   0.000   0.200   0.000    0.00
  17.200   16.42   -1.78    1.18   0.000   0.200   0.000    0.00
  17.250   16.08   -2.51    0.24   0.000   0.200   0.000    0.00
  17.300   16.61   -2.25    0.11   0.000   0.200   0.000    0.00
  17.350   16.69   -5.05    0.11   0.000   0.200   0.000    0.00
  17.400   16.52   -6.25   -0.17   0.000   0.200   0.000    0.00
  17.450   16.60   -3.79   -0.26   0.000   0.200   0.000    0.00
  17.500   16.43   -3.86    0.61   0.000   0.200   0.000    0.00
  17.550   16.18   -4.64    0.39   0.000   0.200   0.000    0.00
  17.600   16.18   -4.42    0.44   0.000   0.200   0.000    0.00
  17.650   16.04   -1.87   -0.16   0.000   0.200   0.000    0.00
  17.700   16.04   -1.50    0.59   0.000   0.200   0.000    0.00
  17.750   16.61   -0.95    0.76   0.000   0.200   0.000    0.00
  17.800   16.53   -0.21    1.17   0.000   0.200   0.000    0.00
  17.850   15.79    0.64    1.16   0.000   0.200   0.000    0.00
  17.900   15.44    0.23    1.22   0.000   0.200   0.000    0.00
  17.950   15.31   -2.84    1.24   0.000   0.200   0.000    0.00
  18.000   15.30   -1.76    1.53   0.000   0.200   0.000    0.00
  18.050   15.80   -1.35    1.06   0.000   0.200   0.000    0.00
  18.100   15.34   -4.31    1.63   0.000   0.200   0.000    0.00
  18.150   15.42   -6.39    1.98   0.000   0.200   0.000    0.00
  18.200   15.75   -6.28    1.48   0.000   0.200   0.000    0.00
  18.250   16.04   -4.29    1.13   0.000   0.200   0.000    0.00
  18.300   15.66   -4.59    1.19   0.000   0.200   0.000    0.00
  18.350   15.41   -4.77    1.43   0.000   0.200   0.000    0.00
  18.400   15.48   -2.38    1.54   0.000   0.200   0.000    0.00
  18.450   16.32   -0.81    1.95   0.000   0.200   0.000    0.00
  18.500   16.41   -1.15    2.11   0.000   0.200   0.000    0.00
  18.550   16.51    0.30    2.56   0.000   0.200   0.000    0.00
  18.600   16.45   -0.46    2.12   0.000   0.200   0.000    0.00
  18.650   15.82   -1.78    1.62   0.000   0.200   0.000    0.00
  18.700   15.23   -1.90    0.41   0.000   0.200   0.000    0.00
  18.750   15.09   -2.03   -0.23   0.000   0.200   0.000    0.00
  18.800   15.15   -2.31    0.30   0.000   0.200   0.000    0.00
  18.850   15.50   -1.93    1.05   0.000   0.200   0.000    0.00
  18.900   15.96   -3.19    0.84   0.000   0.200   0.000    0.00
  18.950   16.36   -3.44    1.10   0.000   0.200   0.000    0.00
  19.000   16.52   -5.18    1.14   0.000   0.200   0.000    0.00
  19.050   16.70   -3.96    0.90   0.000   0.200   0.000    0.00
  19.100   16.63   -7.13    1.01   0.000   0.200   0.000    0.00
  19.150   16.99   -7.32    0.05   0.000   0.200   0.000    0.00
  19.200   16.19   -8.49   -0.44   0.000   0.200   0.000    0.00
  19.250   16.29   -8.52   -0.45   0.000   0.200   0.000    0.00
  19.300   16.84   -8.85   -0.31   0.000   0.200   0.000    0.00
  19.350   15.97   -8.82   -0.39   0.000   0.200   0.000    0.00
  19.400   15.36  -10.01   -0.55   0.000   0.200   0.000    0.00
  19.450   15.56   -7.48   -1.65   0.000   0.200   0.000    0.00
  19.500   15.50   -7.08   -1.18   0.000   0.200   0.000    0.00
  19.550   15.17   -4.23   -1.02   0.000   0.200   0.000    0.00
  19.600   15.50   -7.01   -0.75   0.000   0.200   0.000    0.00
  19.650   15.13   -7.91   -0.66   0.000   0.200   0.000    0.00
  19.700   15.36   -8.03   -0.19   0.000   0.200   0.000    0.00
  19.750   15.20  -11.66   -0.14   0.000   0.200   0.000    0.00
  19.800   15.37  -11.05   -0.11   0.000   0.200   0.000    0.00
  19.850   16.04   -9.10   -0.16   0.000   0.200   0.000    0.00
  19.900   16.07   -9.06    0.28   0.000   0.200   0.000    0.00
  19.950   15.83  -10.25    0.39   0.000   0.200   0.000    0.00
  20.000   15.84  -11.73    1.02   0.000   0.200   0.000    0.00
  20.050   16.04  -12.36    0.09   0.000   0.200   0.000    0.00
  20.100   16.46  -13.46   -0.28   0.000   0.200   0.000    0.00
  20.150   16.85  -12.66   -0.26   0.000   0.200   0.000    0.00
  20.200   16.79  -13.64   -0.36   0.000   0.200   0.000    0.00
  20.250   17.20  -13.33   -0.09   0.000   0.200   0.000    0.00
  20.300   17.42  -13.84    0.56   0.000   0.200   0.000    0.00
  20.350   16.75  -14.34    1.00   0.000   0.200   0.000    0.00
  20.400   17.23  -12.52    0.97   0.000   0.200   0.000    0.00
  20.450   17.95  -12.65    1.15   0.000   0.200   0.000    0.00
  20.500   17.91   -8.85    0.59   0.000   0.200   0.000    0.00
  20.550   18.66   -9.88    0.13   0.000   0.200   0.000    0.00
  20.600   18.20   -8.45    0.04   0.000   0.200   0.000    0.00
  20.650   18.05   -8.53   -0.58   0.000   0.200   0.000    0.00
  20.700   18.31   -7.38    0.53   0.000   0.200   0.000    0.00
  20.750   18.56   -8.57    0.68   0.000   0.200   0.000    0.00
  20.800   18.38   -7.55    0.62   0.000   0.200   0.000    0.00
  20.850   18.68   -9.40    0.55   0.000   0.200   0.000    0.00
  20.900   18.13   -9.05    0.90   0.000   0.200   0.000    0.00
  20.950   18.81   -7.09    0.61   0.000   0.200   0.000    0.00
  21.000   18.23   -6.30    0.82   0.000   0.200   0.000    0.00
  21.050   18.31   -6.16    1.02   0.000   0.200   0.000    0.00
  21.100   18.01   -7.90    1.42   0.000   0.200   0.000    0.00
  21.150   17.71   -7.14    1.21   0.000   0.200   0.000    0.00
  21.200   17.90   -6.95    0.70   0.000   0.200   0.000    0.00
  21.250   17.79   -5.65    0.02   0.000   0.200   0.000    0.00
  21.300   17.56   -2.81   -0.40   0.000   0.200   0.000    0.00
  21.350   17.48   -2.01    0.52   0.000   0.200   0.000    0.00
  21.400   17.54   -4.69    0.81   0.000   0.200   0.000    0.00
  21.450   18.07   -5.95    0.76   0.000   0.200   0.000    0.00
  21.500   17.53   -8.30    0.05   0.000   0.200   0.000    0.00
  21.550   16.87   -8.82   -0.52   0.000   0.200   0.000    0.00
  21.600   16.37  -11.20   -0.34   0.000   0.200   0.000    0.00
  21.650   16.45  -11.25    0.12   0.000   0.200   0.000    0.00
  21.700   16.61  -11.32   -0.80   0.000   0.200   0.000    0.00
  21.750   16.70   -8.48   -0.89   0.000   0.200   0.000    0.00
  21.800   16.17  -10.02   -0.43   0.000   0.200   0.000    0.00
  21.850   16.22  -12.55   -0.77   0.000   0.200   0.000    0.00
  21.900   15.50  -11.08   -1.47   0.000   0.200   0.000    0.00
  21.950   15.51   -8.65   -1.27   0.000   0.200   0.000    0.00
  22.000   15.75   -6.77   -1.47   0.000   0.200   0.000    0.00
  22.050   15.51   -8.67   -1.07   0.000   0.200   0.000    0.00
  22.100   15.75   -9.38   -0.59   0.000   0.200   0.000    0.00
  22.150   15.89  -11.53   -1.01   0.000   0.200   0.000    0.00
  22.200   15.72  -13.32   -1.00   0.000   0.200   0.000    0.00
  22.250   15.84  -11.21   -0.92   0.000   0.200   0.000    0.00
  22.300   15.66   -9.32   -0.78   0.000   0.200   0.000    0.00
  22.350   15.47  -11.94   -0.56   0.000   0.200   0.000    0.00