! This hub-height wind-speed file was generated by TurbSim (v1.06.00, 21-Sep-2012) on 03-Feb-2018 at 23:30:11.
!
! The requested statistics for this data were:
!    Mean Total Wind Speed =   13.000 m/s
!    Turbulence Intensity  =   24.640%
!
!   Time  HorSpd  WndDir  VerSpd  HorShr  VerShr  LnVShr  GstSpd
!  (sec)   (m/s)   (deg)   (m/s)     (-)     (-)     (-)   (m/s)
   0.000   12.59   -7.96    0.88   0.000   0.200   0.000    0.00
   0.050   13.28   -6.58    1.05   0.000   0.200   0.000    0.00
   0.100   13.19   -7.53    0.89   0.000   0.200   0.000    0.00
   0.150   12.67   -9.93    1.51   0.000   0.200   0.000    0.00
   0.200   12.38   -8.30    2.12   0.000   0.200   0.000    0.00
   0.250   12.83   -6.80    3.22   0.000   0.200   0.000    0.00
   0.300   12.26   -8.10    2.89   0.000   0.200   0.000    0.00
   0.350   12.61   -1.13    1.29   0.000   0.200   0.000    0.00
   0.400   12.48    0.21    0.79   0.000   0.200   0.000    0.00
   0.450   12.35    0.62    1.32   0.000   0.200   0.000    0.00
   0.500   12.11   -2.56    1.62   0.000   0.200   0.000    0.00
   0.550   11.65    0.03    1.68   0.000   0.200   0.000    0.00
   0.600   11.50    1.27    1.78   0.000   0.200   0.000    0.00
   0.650   11.66   -0.09    1.88   0.000   0.200   0.000    0.00
   0.700   12.33    3.67    1.70   0.000   0.200   0.000    0.00
   0.750   12.07   -3.40    1.98   0.000   0.200   0.000    0.00
   0.800   12.34    2.04    0.77   0.000   0.200   0.000    0.00
   0.850   12.65    4.08    0.50   0.000   0.200   0.000    0.00
   0.900   13.11    5.00   -0.21   0.000   0.200   0.000    0.00
   0.950   12.08    1.89   -0.50   0.000   0.200   0.000    0.00
   1.000   11.90    5.66   -0.72   0.000   0.200   0.000    0.00
   1.050   12.04    7.34   -0.47   0.000   0.200   0.000    0.00
   1.100   13.16    6.14   -0.38   0.000   0.200   0.000    0.00
   1.150   13.66    6.07   -0.35   0.000   0.200   0.000    0.00
   1.200   14.30    7.62   -0.55   0.000   0.200   0.000    0.00
   1.250   13.97    7.40    0.01   0.000   0.200   0.000    0.00
   1.300   13.98    4.31   -0.18   0.000   0.200   0.000    0.00
   1.350   13.90    1.78   -1.65   0.000   0.200   0.000    0.00
   1.400   14.16    1.12   -1.38   0.000   0.200   0.000    0.00
   1.450   13.92    1.92   -0.25   0.000   0.200   0.000    0.00
   1.500   14.15    3.57   -0.04   0.000   0.200   0.000    0.00
   1.550   14.08    3.93   -0.29   0.000   0.200   0.000    0.00
   1.600   13.98    6.99   -0.32   0.000   0.200   0.000    0.00
   1.650   14.14    8.10   -0.81   0.000   0.200   0.000    0.00
   1.700   14.82    7.97    0.89   0.000   0.200   0.000    0.00
   1.750   15.52    9.71    0.39   0.000   0.200   0.000    0.00
   1.800   15.51   10.10    0.39   0.000   0.200   0.000    0.00
   1.850   15.73    9.26   -0.43   0.000   0.200   0.000    0.00
   1.900   17.13    7.73   -0.27   0.000   0.200   0.000    0.00
   1.950   16.59    7.67   -1.10   0.000   0.200   0.000    0.00
   2.000   16.39    6.16   -0.10   0.000   0.200   0.000    0.00
   2.050   16.70    8.21   -0.48   0.000   0.200   0.000    0.00
   2.100   16.71    7.08   -0.09   0.000   0.200   0.000    0.00
   2.150   16.19    3.34   -0.73   0.000   0.200   0.000    0.00
   2.200   15.68    1.60   -0.75   0.000   0.200   0.000    0.00
   2.250   15.39    3.27   -0.52   0.000   0.200   0.000    0.00
   2.300   15.31    2.01   -0.51   0.000   0.200   0.000    0.00
   2.350   15.05    3.73   -0.45   0.000   0.200   0.000    0.00
   2.400   14.99    1.63    0.39   0.000   0.200   0.000    0.00
   2.450   14.53    1.93   -0.32   0.000   0.200   0.000    0.00
   2.500   14.77   -1.18   -0.74   0.000   0.200   0.000    0.00
   2.550   14.12   -1.14   -0.51   0.000   0.200   0.000    0.00
   2.600   14.46   -1.38   -0.18   0.000   0.200   0.000    0.00
   2.650   14.31   -2.95    0.09   0.000   0.200   0.000    0.00
   2.700   14.79   -5.18    0.24   0.000   0.200   0.000    0.00
   2.750   15.73   -1.81    0.30   0.000   0.200   0.000    0.00
   2.800   15.65   -3.01   -0.07   0.000   0.200   0.000    0.00
   2.850   15.60   -2.49    0.44   0.000   0.200   0.000    0.00
   2.900   15.58   -2.08   -0.17   0.000   0.200   0.000    0.00
   2.950   16.36   -0.80   -0.24   0.000   0.200   0.000    0.00
   3.000   16.42    0.70   -0.40   0.000   0.200   0.000    0.00
   3.050   15.65    1.81   -0.10   0.000   0.200   0.000    0.00
   3.100   15.40   -0.65    0.19   0.000   0.200   0.000    0.00
   3.150   15.65   -2.06    0.17   0.000   0.200   0.000    0.00
   3.200   16.18   -1.85   -0.46   0.000   0.200   0.000    0.00
   3.250   15.45   -4.06   -0.20   0.000   0.200   0.000    0.00
   3.300   15.37   -1.50   -0.16   0.000   0.200   0.000    0.00
   3.350   15.31   -3.92   -0.29   0.000   0.200   0.000    0.00
   3.400   14.43   -6.14    0.23   0.000   0.200   0.000    0.00
   3.450   14.86   -5.87    0.41   0.000   0.200   0.000    0.00
   3.500   15.09   -7.03    0.15   0.000   0.200   0.000    0.00
   3.550   15.42   -9.71    0.50   0.000   0.200   0.000    0.00
   3.600   15.67   -4.99    0.96   0.000   0.200   0.000    0.00
   3.650   15.89   -1.74    0.62   0.000   0.200   0.000    0.00
   3.700   16.34   -6.65    1.50   0.000   0.200   0.000    0.00
   3.750   15.95   -2.59    2.23   0.000   0.200   0.000    0.00
   3.800   15.79   -1.23    1.32   0.000   0.200   0.000    0.00
   3.850   15.36    2.30    1.37   0.000   0.200   0.000    0.00
   3.900   15.27    4.54    0.15   0.000   0.200   0.000    0.00
   3.950   14.28    7.32   -0.12   0.000   0.200   0.000    0.00
   4.000   14.42    3.75   -0.15   0.000   0.200   0.000    0.00
   4.050   13.71    2.76   -0.42   0.000   0.200   0.000    0.00
   4.100   13.86    5.41   -0.98   0.000   0.200   0.000    0.00
   4.150   13.92    8.26   -1.65   0.000   0.200   0.000    0.00
   4.200   13.76    9.82   -2.23   0.000   0.200   0.000    0.00
   4.250   15.75   11.41   -1.06   0.000   0.200   0.000    0.00
   4.300   16.34   10.36   -1.68   0.000   0.200   0.000    0.00
   4.350   15.77    8.86   -1.83   0.000   0.200   0.000    0.00
   4.400   16.06   11.19   -1.08   0.000   0.200   0.000    0.00
   4.450   16.68   12.43   -1.02   0.000   0.200   0.000    0.00
   4.500   16.65   11.41   -0.99   0.000   0.200   0.000    0.00
   4.550   17.00   10.83   -0.29   0.000   0.200   0.000    0.00
   4.600   17.03   11.68    0.36   0.000   0.200   0.000    0.00
   4.650   17.27    7.95   -0.43   0.000   0.200   0.000    0.00
   4.700   17.36    8.68   -0.53   0.000   0.200   0.000    0.00
   4.750   17.50   12.54   -0.13   0.000   0.200   0.000    0.00
   4.800   17.27   12.59    0.15   0.000   0.200   0.000    0.00
   4.850   17.45   12.68    0.51   0.000   0.200   0.000    0.00
   4.900   18.04   13.52    0.25   0.000   0.200   0.000    0.00
   4.950   18.56   13.87    1.06   0.000   0.200   0.000    0.00
   5.000   17.39   11.16    1.22   0.000   0.200   0.000    0.00
   5.050   17.27   12.37    1.46   0.000   0.200   0.000    0.00
   5.100   17.23   13.25    0.42   0.000   0.200   0.000    0.00
   5.150   17.34   11.76    0.21   0.000   0.200   0.000    0.00
   5.200   17.14   14.06    0.19   0.000   0.200   0.000    0.00
   5.250   17.00   11.18    1.42   0.000   0.200   0.000    0.00
   5.300   16.15    7.30    0.83   0.000   0.200   0.000    0.00
   5.350   15.92    5.60   -0.45   0.000   0.200   0.000    0.00
   5.400   16.16    8.18   -0.06   0.000   0.200   0.000    0.00
   5.450   17.15    8.79    0.05   0.000   0.200   0.000    0.00
   5.500   16.00   10.83    0.11   0.000   0.200   0.000    0.00
   5.550   15.85    9.46   -0.51   0.000   0.200   0.000    0.00
   5.600   16.51    7.15   -0.27   0.000   0.200   0.000    0.00
   5.650   16.82    4.62    0.00   0.000   0.200   0.000    0.00
   5.700   16.85    8.13    0.24   0.000   0.200   0.000    0.00
   5.750   16.49    9.40    0.25   0.000   0.200   0.000    0.00
   5.800   15.16    8.77   -1.01   0.000   0.200   0.000    0.00
   5.850   15.11    8.00   -1.25   0.000   0.200   0.000    0.00
   5.900   15.55   11.94   -1.73   0.000   0.200   0.000    0.00
   5.950   16.05    9.29   -2.03   0.000   0.200   0.000    0.00
   6.000   16.50   10.52   -1.71   0.000   0.200   0.000    0.00
   6.050   15.78   14.34   -1.52   0.000   0.200   0.000    0.00
   6.100   15.70   13.50   -1.76   0.000   0.200   0.000    0.00
   6.150   15.37   10.05   -2.79   0.000   0.200   0.000    0.00
   6.200   15.24   15.32   -2.84   0.000   0.200   0.000    0.00
   6.250   13.85   16.11   -2.35   0.000   0.200   0.000    0.00
   6.300   13.86   17.11   -2.09   0.000   0.200   0.000    0.00
   6.350   14.73   17.76   -2.11   0.000   0.200   0.000    0.00
   6.400   15.12   17.19   -2.08   0.000   0.200   0.000    0.00
   6.450   15.91   18.48   -1.66   0.000   0.200   0.000    0.00
   6.500   16.16   19.09   -2.35   0.000   0.200   0.000    0.00
   6.550   16.37   20.04   -1.84   0.000   0.200   0.000    0.00
   6.600   16.64   18.64   -2.48   0.000   0.200   0.000    0.00
   6.650   17.36   16.81   -1.81   0.000   0.200   0.000    0.00
   6.700   16.79   15.26   -1.64   0.000   0.200   0.000    0.00
   6.750   16.57   15.07   -1.01   0.000   0.200   0.000    0.00
   6.800   16.73   13.90   -0.97   0.000   0.200   0.000    0.00
   6.850   16.73   10.48   -1.05   0.000   0.200   0.000    0.00
   6.900   15.76   10.86   -0.53   0.000   0.200   0.000    0.00
   6.950   15.85    8.14   -0.23   0.000   0.200   0.000    0.00
   7.000   15.54   10.39   -0.10   0.000   0.200   0.000    0.00
   7.050   15.29   13.61   -0.05   0.000   0.200   0.000    0.00
   7.100   16.15    9.77   -0.28   0.000   0.200   0.000    0.00
   7.150   17.10   13.65   -0.56   0.000   0.200   0.000    0.00
   7.200   16.51   11.78    0.03   0.000   0.200   0.000    0.00
   7.250   16.79   10.81   -0.27   0.000   0.200   0.000    0.00
   7.300   17.45    9.66   -0.08   0.000   0.200   0.000    0.00
   7.350   17.57   10.05    0.33   0.000   0.200   0.000    0.00
   7.400   16.87   11.18    1.28   0.000   0.200   0.000    0.00
   7.450   17.23   10.44    0.88   0.000   0.200   0.000    0.00
   7.500   17.82   12.01    0.30   0.000   0.200   0.000    0.00
   7.550   18.16   10.21   -0.11   0.000   0.200   0.000    0.00
   7.600   17.60   11.12    0.12   0.000   0.200   0.000    0.00
   7.650   18.04   11.63    0.25   0.000   0.200   0.000    0.00
   7.700   18.24    9.85   -0.84   0.000   0.200   0.000    0.00
   7.750   16.91    9.42   -1.45   0.000   0.200   0.000    0.00
   7.800   16.38    7.70   -1.77   0.000   0.200   0.000    0.00
   7.850   17.27    5.97   -2.12   0.000   0.200   0.000    0.00
   7.900   17.16    7.65   -1.46   0.000   0.200   0.000    0.00
   7.950   16.73    8.74   -1.23   0.000   0.200   0.000    0.00
   8.000   16.98    8.02   -1.17   0.000   0.200   0.000    0.00
   8.050   16.96    9.60   -0.90   0.000   0.200   0.000    0.00
   8.100   16.69    6.02   -0.71   0.000   0.200   0.000    0.00
   8.150   16.64    4.95    0.34   0.000   0.200   0.000    0.00
   8.200   17.31   10.50    0.43   0.000   0.200   0.000    0.00
   8.250   17.32   10.21    0.89   0.000   0.200   0.000    0.00
   8.300   16.56   10.73    0.78   0.000   0.200   0.000    0.00
   8.350   15.85    9.09    1.14   0.000   0.200   0.000    0.00
   8.400   15.80   11.67    1.18   0.000   0.200   0.000    0.00
   8.450   16.63   11.32    0.13   0.000   0.200   0.000    0.00
   8.500   17.36    7.34   -0.19   0.000   0.200   0.000    0.00
   8.550   18.18    3.90    0.28   0.000   0.200   0.000    0.00
   8.600   18.02    5.87    0.45   0.000   0.200   0.000    0.00
   8.650   18.28    9.19   -0.17   0.000   0.200   0.000    0.00
   8.700   18.31    8.95    1.01   0.000   0.200   0.000    0.00
   8.750   17.74    6.27    0.51   0.000   0.200   0.000    0.00
   8.800   17.40    4.66    0.77   0.000   0.200   0.000    0.00
   8.850   17.50    6.16   -0.34   0.000   0.200   0.000    0.00
   8.900   17.40    8.64    0.25   0.000   0.200   0.000    0.00
   8.950   17.28    9.94    0.55   0.000   0.200   0.000    0.00
   9.000   17.97   10.43    1.37   0.000   0.200   0.000    0.00
   9.050   18.39   11.05    0.00   0.000   0.200   0.000    0.00
   9.100   18.55   12.35    0.50   0.000   0.200   0.000    0.00
   9.150   18.32   13.67    0.95   0.000   0.200   0.000    0.00
   9.200   17.84   10.35    0.59   0.000   0.200   0.000    0.00
   9.250   17.79    8.79    0.99   0.000   0.200   0.000    0.00
   9.300   18.38    9.24    0.59   0.000   0.200   0.000    0.00
   9.350   18.02    9.95    0.62   0.000   0.200   0.000    0.00
   9.400   17.75    9.75    0.51   0.000   0.200   0.000    0.00
   9.450   17.14   10.83    0.57   0.000   0.200   0.000    0.00
   9.500   18.00   10.08    1.15   0.000   0.200   0.000    0.00
   9.550   18.07   10.06    1.28   0.000   0.200   0.000    0.00
   9.600   17.60    9.38    0.56   0.000   0.200   0.000    0.00
   9.650   17.83   10.58    0.61   0.000   0.200   0.000    0.00
   9.700   18.59    9.54   -0.16   0.000   0.200   0.000    0.00
   9.750   18.52    9.75   -0.39   0.000   0.200   0.000    0.00
   9.800   18.79    7.40   -0.28   0.000   0.200   0.000    0.00
   9.850   18.99    6.76   -0.60   0.000   0.200   0.000    0.00
   9.900   19.10    7.56   -0.96   0.000   0.200   0.000    0.00
   9.950   19.42    8.86    0.59   0.000   0.200   0.000    0.00
  10.000   18.72    8.58    0.61   0.000   0.200   0.000    0.00
  10.050   18.44    6.67   -0.04   0.000   0.200   0.000    0.00
  10.100   18.86    8.80   -1.21   0.000   0.200   0.000    0.00
  10.150   18.95    7.52   -1.01   0.000   0.200   0.000    0.00
  10.200   19.51    4.92   -0.75   0.000   0.200   0.000    0.00
  10.250   18.43    4.06   -0.41   0.000   0.200   0.000    0.00
  10.300   18.72    1.67   -0.73   0.000   0.200   0.000    0.00
  10.350   18.61    2.20   -1.63   0.000   0.200   0.000    0.00
  10.400   18.59    7.30   -1.52   0.000   0.200   0.000    0.00
  10.450   18.15    5.07   -1.15   0.000   0.200   0.000    0.00
  10.500   18.33    3.74   -0.59   0.000   0.200   0.000    0.00
  10.550   18.02    6.10   -0.05   0.000   0.200   0.000    0.00
  10.600   17.05    5.64   -0.40   0.000   0.200   0.000    0.00
  10.650   17.40    4.82   -0.23   0.000   0.200   0.000    0.00
  10.700   17.32    4.98    0.05   0.000   0.200   0.000    0.00
  10.750   17.64    3.91   -0.71   0.000   0.200   0.000    0.00
  10.800   18.10    3.75   -0.53   0.000   0.200   0.000    0.00
  10.850   17.94    3.47   -0.77   0.000   0.200   0.000    0.00
  10.900   17.57    5.53   -1.27   0.000   0.200   0.000    0.00
  10.950   16.63    6.60   -1.26   0.000   0.200   0.000    0.00
  11.000   16.65    6.47   -1.58   0.000   0.200   0.000    0.00
  11.050   16.06    3.54   -0.58   0.000   0.200   0.000    0.00
  11.100   16.52    5.08   -0.16   0.000   0.200   0.000    0.00
  11.150   17.47    7.09   -0.89   0.000   0.200   0.000    0.00
  11.200   17.19    6.00   -1.11   0.000   0.200   0.000    0.00
  11.250   16.28    4.04   -1.05   0.000   0.200   0.000    0.00
  11.300   16.31    7.21   -0.29   0.000   0.200   0.000    0.00
  11.350   16.62    8.01    0.23   0.000   0.200   0.000    0.00
  11.400   16.34    6.90    0.61   0.000   0.200   0.000    0.00
  11.450   16.03    4.84    0.01   0.000   0.200   0.000    0.00
  11.500   15.65    8.02    0.27   0.000   0.200   0.000    0.00
  11.550   15.62    8.12    0.99   0.000   0.200   0.000    0.00
  11.600   15.36   10.78    0.66   0.000   0.200   0.000    0.00
  11.650   15.81   12.38    0.14   0.000   0.200   0.000    0.00
  11.700   16.15   10.94   -0.29   0.000   0.200   0.000    0.00
  11.750   15.95    9.07   -0.24   0.000   0.200   0.000    0.00
  11.800   16.08    8.55    0.64   0.000   0.200   0.000    0.00
  11.850   16.00   10.90    0.78   0.000   0.200   0.000    0.00
  11.900   17.52    9.36    1.30   0.000   0.200   0.000    0.00
  11.950   17.82    8.78    1.13   0.000   0.200   0.000    0.00
  12.000   17.13    6.80   -0.10   0.000   0.200   0.000    0.00
  12.050   16.41    6.87    0.12   0.000   0.200   0.000    0.00
  12.100   16.93    5.58    0.03   0.000   0.200   0.000    0.00
  12.150   16.62    4.41    0.21   0.000   0.200   0.000    0.00
  12.200   16.63    6.86    0.59   0.000   0.200   0.000    0.00
  12.250   16.62    6.92    0.74   0.000   0.200   0.000    0.00
  12.300   17.43    8.04    1.05   0.000   0.200   0.000    0.00
  12.350   17.42    9.97    1.16   0.000   0.200   0.000    0.00
  12.400   17.33    9.03    0.63   0.000   0.200   0.000    0.00
  12.450   17.50    6.99    0.71   0.000   0.200   0.000    0.00
  12.500   17.43    4.22    1.09   0.000   0.200   0.000    0.00
  12.550   17.99    3.66    1.13   0.000   0.200   0.000    0.00
  12.600   17.86    3.70    0.41   0.000   0.200   0.000    0.00
  12.650   18.04    2.01   -0.86   0.000   0.200   0.000    0.00
  12.700   17.79    3.90   -0.55   0.000   0.200   0.000    0.00
  12.750   18.07    5.81   -1.33   0.000   0.200   0.000    0.00
  12.800   17.98    8.25   -1.24   0.000   0.200   0.000    0.00
  12.850   18.70   10.67   -1.45   0.000   0.200   0.000    0.00
  12.900   19.25    9.92   -1.19   0.000   0.200   0.000    0.00
  12.950   18.69    8.23   -1.02   0.000   0.200   0.000    0.00
  13.000   18.72    3.96   -1.27   0.000   0.200   0.000    0.00
  13.050   19.05    6.63   -1.05   0.000   0.200   0.000    0.00
  13.100   18.56    5.02   -1.36   0.000   0.200   0.000    0.00
  13.150   17.96    5.80   -0.99   0.000   0.200   0.000    0.00
  13.200   18.13    6.54   -1.30   0.000   0.200   0.000    0.00
  13.250   17.73    6.45   -0.69   0.000   0.200   0.000    0.00
  13.300   17.54    6.39   -0.87   0.000   0.200   0.000    0.00
  13.350   18.58    6.12   -0.04   0.000   0.200   0.000    0.00
  13.400   18.31    6.31    0.13   0.000   0.200   0.000    0.00
  13.450   18.59    4.68   -0.68   0.000   0.200   0.000    0.00
  13.500   18.41    6.31   -0.43   0.000   0.200   0.000    0.00
  13.550   18.11    7.45   -0.29   0.000   0.200   0.000    0.00
  13.600   16.97    8.19    0.24   0.000   0.200   0.000    0.00
  13.650   17.60    8.60    0.19   0.000   0.200   0.000    0.00
  13.700   18.06   14.15    0.44   0.000   0.200   0.000    0.00
  13.750   18.14   12.32   -0.67   0.000   0.200   0.000    0.00
  13.800   18.51   14.81   -0.86   0.000   0.200   0.000    0.00
  13.850   18.43   15.28   -1.33   0.000   0.200   0.000    0.00
  13.900   19.01   17.39   -0.84   0.000   0.200   0.000    0.00
  13.950   19.05   17.40   -0.13   0.000   0.200   0.000    0.00
  14.000   18.46   17.69    0.28   0.000   0.200   0.000    0.00
  14.050   18.02   16.78   -0.21   0.000   0.200   0.000    0.00
  14.100   18.02   16.70   -0.41   0.000   0.200   0.000    0.00
  14.150   17.92   20.09   -0.16   0.000   0.200   0.000    0.00
  14.200   17.74   22.47    0.37   0.000   0.200   0.000    0.00
  14.250   18.01   21.79   -0.68   0.000   0.200   0.000    0.00
  14.300   18.57   22.01   -0.89   0.000   0.200   0.000    0.00
  14.350   18.03   24.18   -1.24   0.000   0.200   0.000    0.00
  14.400   16.91   21.33   -0.44   0.000   0.200   0.000    0.00
  14.450   16.88   23.63   -0.47   0.000   0.200   0.000    0.00
  14.500   16.17   23.58   -0.04   0.000   0.200   0.000    0.00
  14.550   16.57   23.84   -0.48   0.000   0.200   0.000    0.00
  14.600   16.56   21.37   -1.74   0.000   0.200   0.000    0.00
  14.650   17.56   21.64   -1.68   0.000   0.200   0.000    0.00
  14.700   17.72   23.73   -1.00   0.000   0.200   0.000    0.00
  14.750   18.01   18.19   -2.07   0.000   0.200   0.000    0.00
  14.800   17.58   18.25   -2.05   0.000   0.200   0.000    0.00
  14.850   18.53   15.92   -2.16   0.000   0.200   0.000    0.00
  14.900   17.84   18.99   -2.41   0.000   0.200   0.000    0.00
  14.950   18.37   19.37   -2.21   0.000   0.200   0.000    0.00
  15.000   18.53   18.32   -1.80   0.000   0.200   0.000    0.00
  15.050   18.22   20.69   -1.44   0.000   0.200   0.000    0.00
  15.100   18.28   25.61   -1.69   0.000   0.200   0.000    0.00
  15.150   18.07   24.94   -1.38   0.000   0.200   0.000    0.00
  15.200   18.17   25.01   -0.99   0.000   0.200   0.000    0.00
  15.250   17.77   23.50   -0.41   0.000   0.200   0.000    0.00
  15.300   17.49   21.76   -0.24   0.000   0.200   0.000    0.00
  15.350   17.61   21.38   -0.65   0.000   0.200   0.000    0.00
  15.400   17.14   21.42   -0.72   0.000   0.200   0.000    0.00
  15.450   17.03   20.66    0.00   0.000   0.200   0.000    0.00
  15.500   18.15   23.23   -0.81   0.000   0.200   0.000    0.00
  15.550   18.87   21.85   -1.54   0.000   0.200   0.000    0.00
  15.600   19.69   19.55   -2.65   0.000   0.200   0.000    0.00
  15.650   19.61   19.80   -2.54   0.000   0.200   0.000    0.00
  15.700   19.10   21.48   -3.10   0.000   0.200   0.000    0.00
  15.750   19.23   23.71   -4.04   0.000   0.200   0.000    0.00
  15.800   19.06   19.32   -3.52   0.000   0.200   0.000    0.00
  15.850   19.15   20.50   -2.85   0.000   0.200   0.000    0.00
  15.900   19.00   19.89   -2.54   0.000   0.200   0.000    0.00
  15.950   18.80   17.82   -3.14   0.000   0.200   0.000    0.00
  16.000   18.48   17.63   -3.10   0.000   0.200   0.000    0.00
  16.050   18.45   17.48   -4.42   0.000   0.200   0.000    0.00
  16.100   18.32   18.26   -4.57   0.000   0.200   0.000    0.00
  16.150   18.17   15.68   -3.55   0.000   0.200   0.000    0.00
  16.200   19.03   14.42   -2.76   0.000   0.200   0.000    0.00
  16.250   18.67   15.78   -3.13   0.000   0.200   0.000    0.00
  16.300   18.42   14.93   -4.02   0.000   0.200   0.000    0.00
  16.350   19.36   15.56   -3.37   0.000   0.200   0.000    0.00
  16.400   19.84   14.86   -1.96   0.000   0.200   0.000    0.00
  16.450   20.14   15.68   -1.74   0.000   0.200   0.000    0.00
  16.500   20.76   19.05   -1.54   0.000   0.200   0.000    0.00
  16.550   21.23   21.18   -1.54   0.000   0.200   0.000    0.00
  16.600   20.25   19.35   -1.51   0.000   0.200   0.000    0.00
  16.650   19.65   19.56   -1.34   0.000   0.200   0.000    0.00
  16.700   20.21   17.51   -0.68   0.000   0.200   0.000    0.00
  16.750   20.00   18.26   -1.63   0.000   0.200   0.000    0.00
  16.800   20.01   18.71   -1.14   0.000   0.200   0.000    0.00
  16.850   20.31   17.16   -1.34   0.000   0.200   0.000    0.00
  16.900   20.14   14.69   -1.33   0.000   0.200   0.000    0.00
  16.950   19.76   14.55   -1.32   0.000   0.200   0.000    0.00
  17.000   19.48   13.44   -1.13   0.000   0.200   0.000    0.00
  17.050   19.73   13.84   -2.21   0.000   0.200   0.000    0.00
  17.100   19.92   12.25   -2.56   0.000   0.200   0.000    0.00
  17.150   20.49   13.44   -3.12   0.000   0.200   0.000    0.00
  17.200   20.14   12.10   -2.60   0.000   0.200   0.000    0.00
  17.250   20.67   14.29   -1.66   0.000   0.200   0.000    0.00
  17.300   21.56   15.34   -1.49   0.000   0.200   0.000    0.00
  17.350   21.92   15.01   -1.05   0.000   0.200   0.000    0.00
  17.400   21.55   14.32   -1.98   0.000   0.200   0.000    0.00
  17.450   22.06   14.88   -1.64   0.000   0.200   0.000    0.00
  17.500   22.99   15.81   -1.35   0.000   0.200   0.000    0.00
  17.550   23.44   18.11   -1.97   0.000   0.200   0.000    0.00
  17.600   22.96   18.30   -1.66   0.000   0.200   0.000    0.00
  17.650   22.26   19.97   -1.40   0.000   0.200   0.000    0.00
  17.700   22.57   19.32   -0.72   0.000   0.200   0.000    0.00
  17.750   21.82   18.45   -0.50   0.000   0.200   0.000    0.00
  17.800   20.93   13.74   -0.63   0.000   0.200   0.000    0.00
  17.850   21.51   12.33   -0.74   0.000   0.200   0.000    0.00
  17.900   21.50   12.34   -1.00   0.000   0.200   0.000    0.00
  17.950   21.96    9.61   -0.41   0.000   0.200   0.000    0.00
  18.000   22.23    7.36   -1.26   0.000   0.200   0.000    0.00
  18.050   21.41    5.72   -1.43   0.000   0.200   0.000    0.00
  18.100   20.65    8.09   -0.44   0.000   0.200   0.000    0.00
  18.150   20.76    7.32   -1.05   0.000   0.200   0.000    0.00
  18.200   21.07    8.24   -2.14   0.000   0.200   0.000    0.00
  18.250   21.44    6.10   -2.25   0.000   0.200   0.000    0.00
  18.300   21.72    6.91   -2.17   0.000   0.200   0.000    0.00
  18.350   20.77    7.88   -2.73   0.000   0.200   0.000    0.00
  18.400   20.49    6.75   -2.43   0.000   0.200   0.000    0.00
  18.450   20.74    8.16   -2.36   0.000   0.200   0.000    0.00
  18.500   20.51    8.10   -2.51   0.000   0.200   0.000    0.00
  18.550   19.65    8.92   -2.31   0.000   0.200   0.000    0.00
  18.600   18.74   11.93   -2.02   0.000   0.200   0.000    0.00
  18.650   19.65   11.04   -2.31   0.000   0.200   0.000    0.00
  18.700   20.27    9.62   -2.34   0.000   0.200   0.000    0.00
  18.750   19.78    9.47   -1.76   0.000   0.200   0.000    0.00
  18.800   19.43    9.48   -1.67   0.000   0.200   0.000    0.00
  18.850   18.77    7.99   -1.74   0.000   0.200   0.000    0.00
  18.900   19.37    6.66   -0.79   0.000   0.200   0.000    0.00
  18.950   18.94    7.37   -1.31   0.000   0.200   0.000    0.00
  19.000   18.68    7.10   -1.67   0.000   0.200   0.000    0.00
  19.050   18.77    9.04   -1.16   0.000   0.200   0.000    0.00
  19.100   18.86   10.34   -0.57   0.000   0.200   0.000    0.00
  19.150   18.73    9.44   -0.29   0.000   0.200   0.000    0.00
  19.200   18.89    8.89    0.01   0.000   0.200   0.000    0.00
  19.250   19.49    6.09    0.44   0.000   0.200   0.000    0.00
  19.300   19.70    9.87    0.61   0.000   0.200   0.000    0.00
  19.350   20.67    8.51    0.61   0.000   0.200   0.000    0.00
  19.400   20.46    9.32    0.73   0.000   0.200   0.000    0.00
  19.450   19.92   10.84    0.30   0.000   0.200   0.000    0.00
  19.500   20.12   10.17    0.89   0.000   0.200   0.000    0.00
  19.550   21.06   11.59    0.76   0.000   0.200   0.000    0.00
  19.600   20.15   12.34    0.30   0.000   0.200   0.000    0.00
  19.650   19.97   11.96   -0.58   0.000   0.200   0.000    0.00
  19.700   20.28   12.19   -0.37   0.000   0.200   0.000    0.00
  19.750   20.54   14.72   -0.76   0.000   0.200   0.000    0.00
  19.800   20.86   11.57   -1.17   0.000   0.200   0.000    0.00
  19.850   21.77   10.95   -1.06   0.000   0.200   0.000    0.00
  19.900   21.97   11.88   -0.31   0.000   0.200   0.000    0.00
  19.950   21.14    7.79   -0.53   0.000   0.200   0.000    0.00
  20.000   21.31    7.87    0.24   0.000   0.200   0.000    0.00
  20.050   21.06    7.18    0.26   0.000   0.200   0.000    0.00
  20.100   20.40    5.55    0.28   0.000   0.200   0.000    0.00
  20.150   20.95    6.03    0.40   0.000   0.200   0.000    0.00
  20.200   21.09    2.92    0.85   0.000   0.200   0.000    0.00
  20.250   20.87    3.91    1.67   0.000   0.200   0.000    0.00
  20.300   21.07    5.93    1.99   0.000   0.200   0.000    0.00
  20.350   20.87    6.51    2.02   0.000   0.200   0.000    0.00
  20.400   20.54    4.00    1.79   0.000   0.200   0.000    0.00
  20.450   20.47    0.70    2.02   0.000   0.200   0.000    0.00
  20.500   20.05    3.38    2.67   0.000   0.200   0.000    0.00
  20.550   19.65    3.47    1.98   0.000   0.200   0.000    0.00
  20.600   19.40    3.22    1.02   0.000   0.200   0.000    0.00
  20.650   18.73    1.31    0.45   0.000   0.200   0.000    0.00
  20.700   19.20    5.74    1.29   0.000   0.200   0.000    0.00
  20.750   18.98    5.37    1.77   0.000   0.200   0.000    0.00
  20.800   19.24    2.55    1.34   0.000   0.200   0.000    0.00
  20.850   20.20    1.10    0.99   0.000   0.200   0.000    0.00
  20.900   19.45    0.69    0.87   0.000   0.200   0.000    0.00
  20.950   20.94    1.72    0.64   0.000   0.200   0.000    0.00
  21.000   20.11    3.15    0.50   0.000   0.200   0.000    0.00
  21.050   19.76    5.01    1.06   0.000   0.200   0.000    0.00
  21.100   19.43    5.03    1.53   0.000   0.200   0.000    0.00
  21.150   19.08    7.56    1.81   0.000   0.200   0.000    0.00
  21.200   18.69    8.60    2.05   0.000   0.200   0.000    0.00
  21.250   18.61    6.71    0.60   0.000   0.200   0.000    0.00
  21.300   18.86    4.73   -0.28   0.000   0.200   0.000    0.00
  21.350   19.42    7.27   -0.47   0.000   0.200   0.000    0.00
  21.400   19.58    7.57   -0.63   0.000   0.200   0.000    0.00
  21.450   19.79    9.69   -0.69   0.000   0.200   0.000    0.00
  21.500   20.09   10.50   -0.10   0.000   0.200   0.000    0.00
  21.550   19.84   10.56    0.48   0.000   0.200   0.000    0.00
  21.600   20.30    9.52    1.37   0.000   0.200   0.000    0.00
  21.650   20.55    8.66    0.28   0.000   0.200   0.000    0.00
  21.700   21.20    9.75   -0.05   0.000   0.200   0.000    0.00
  21.750   21.11    9.36   -0.21   0.000   0.200   0.000    0.00
  21.800   22.12    8.39    0.21   0.000   0.200   0.000    0.00
  21.850   22.46    6.71    0.24   0.000   0.200   0.000    0.00
  21.900   22.35    6.38    0.75   0.000   0.200   0.000    0.00
  21.950   23.67    6.36    0.40   0.000   0.200   0.000    0.00
  22.000   23.79    5.89    0.06   0.000   0.200   0.000    0.00
  22.050   22.73    6.59   -0.08   0.000   0.200   0.000    0.00
  22.100   23.61    7.21   -0.26   0.000   0.200   0.000    0.00
  22.150   22.71    8.62    0.29   0.000   0.200   0.000    0.00
  22.200   22.70    9.06    0.62   0.000   0.200   0.000    0.00
  22.250   23.16    7.00    0.61   0.000   0.200   0.000    0.00
  22.300   23.46    4.95    0.06   0.000   0.200   0.000    0.00
  22.350   23.15    8.69   -0.36   0.000   0.200   0.000    0.00