! This hub-height wind-speed file was generated by TurbSim (v1.06.00, 21-Sep-2012) on 03-Feb-2018 at 23:30:52.
!
! The requested statistics for this data were:
!    Mean Total Wind Speed =   23.000 m/s
!    Turbulence Intensity  =   17.433%
!
!   Time  HorSpd  WndDir  VerSpd  HorShr  VerShr  LnVShr  GstSpd
!  (sec)   (m/s)   (deg)   (m/s)     (-)     (-)     (-)   (m/s)
   0.000   26.87    2.35   -1.67   0.000   0.200   0.000    0.00
   0.050   27.72    1.05   -1.16   0.000   0.200   0.000    0.00
   0.100   27.36    5.23   -1.72   0.000   0.200   0.000    0.00
   0.150   28.59    6.60   -1.99   0.000   0.200   0.000    0.00
   0.200   28.98    5.91   -1.45   0.000   0.200   0.000    0.00
   0.250   29.07    3.78   -2.65   0.000   0.200   0.000    0.00
   0.300   28.96    1.48   -2.43   0.000   0.200   0.000    0.00
   0.350   28.94    1.56   -3.53   0.000   0.200   0.000    0.00
   0.400   28.75    3.35   -1.87   0.000   0.200   0.000    0.00
   0.450   28.78    5.47   -1.00   0.000   0.200   0.000    0.00
   0.500   28.97    5.35   -1.26   0.000   0.200   0.000    0.00
   0.550   28.10    7.35   -1.85   0.000   0.200   0.000    0.00
   0.600   26.59    6.75   -2.46   0.000   0.200   0.000    0.00
   0.650   26.36    5.86   -1.68   0.000   0.200   0.000    0.00
   0.700   25.53    6.28   -2.93   0.000   0.200   0.000    0.00
   0.750   24.50    7.14   -3.17   0.000   0.200   0.000    0.00
   0.800   23.77   13.43   -3.71   0.000   0.200   0.000    0.00
   0.850   23.01   13.13   -3.57   0.000   0.200   0.000    0.00
   0.900   23.43   12.42   -2.78   0.000   0.200   0.000    0.00
   0.950   23.04   13.08   -1.80   0.000   0.200   0.000    0.00
   1.000   25.52   12.49   -2.90   0.000   0.200   0.000    0.00
   1.050   26.72    8.96   -3.26   0.000   0.200   0.000    0.00
   1.100   26.43    7.33   -3.02   0.000   0.200   0.000    0.00
   1.150   27.29    6.66   -0.64   0.000   0.200   0.000    0.00
   1.200   27.89    3.94   -1.79   0.000   0.200   0.000    0.00
   1.250   26.85    4.31   -3.05   0.000   0.200   0.000    0.00
   1.300   26.34    6.87   -2.83   0.000   0.200   0.000    0.00
   1.350   25.85    6.69   -3.18   0.000   0.200   0.000    0.00
   1.400   26.23    8.04   -2.84   0.000   0.200   0.000    0.00
   1.450   26.91   10.67   -0.64   0.000   0.200   0.000    0.00
   1.500   27.30    9.56    2.30   0.000   0.200   0.000    0.00
   1.550   27.39    9.42    1.42   0.000   0.200   0.000    0.00
   1.600   27.80   11.47   -0.06   0.000   0.200   0.000    0.00
   1.650   27.64   10.26    0.77   0.000   0.200   0.000    0.00
   1.700   26.42   11.44    0.54   0.000   0.200   0.000    0.00
   1.750   26.84    9.59    1.39   0.000   0.200   0.000    0.00
   1.800   26.83    9.46    2.62   0.000   0.200   0.000    0.00
   1.850   28.25   15.32    2.06   0.000   0.200   0.000    0.00
   1.900   26.53   12.59   -0.31   0.000   0.200   0.000    0.00
   1.950   25.79   10.60    0.53   0.000   0.200   0.000    0.00
   2.000   27.01   12.13   -0.73   0.000   0.200   0.000    0.00
   2.050   27.84   10.92   -1.95   0.000   0.200   0.000    0.00
   2.100   28.81   11.23   -1.64   0.000   0.200   0.000    0.00
   2.150   27.17   10.86    1.27   0.000   0.200   0.000    0.00
   2.200   26.38   11.22    2.94   0.000   0.200   0.000    0.00
   2.250   25.62    7.73    2.47   0.000   0.200   0.000    0.00
   2.300   25.78    5.71    1.37   0.000   0.200   0.000    0.00
   2.350   26.32    5.93   -0.58   0.000   0.200   0.000    0.00
   2.400   27.33    8.47    0.69   0.000   0.200   0.000    0.00
   2.450   27.96    8.33   -0.69   0.000   0.200   0.000    0.00
   2.500   28.53    6.55   -0.81   0.000   0.200   0.000    0.00
   2.550   28.45    7.07   -0.30   0.000   0.200   0.000    0.00
   2.600   27.67    7.09   -2.71   0.000   0.200   0.000    0.00
   2.650   26.41    7.00   -2.50   0.000   0.200   0.000    0.00
   2.700   27.25    5.90   -1.05   0.000   0.200   0.000    0.00
   2.750   28.54    5.23   -0.55   0.000   0.200   0.000    0.00
   2.800   28.29    3.99   -0.43   0.000   0.200   0.000    0.00
   2.850   28.35    0.25   -1.02   0.000   0.200   0.000    0.00
   2.900   27.25    1.33   -0.32   0.000   0.200   0.000    0.00
   2.950   27.20    0.47   -0.98   0.000   0.200   0.000    0.00
   3.000   27.59   -1.72   -0.82   0.000   0.200   0.000    0.00
   3.050   26.82   -0.47   -1.54   0.000   0.200   0.000    0.00
   3.100   28.40   -3.59   -1.63   0.000   0.200   0.000    0.00
   3.150   28.06   -2.03   -2.58   0.000   0.200   0.000    0.00
   3.200   28.41   -3.48   -1.36   0.000   0.200   0.000    0.00
   3.250   27.77   -1.83   -2.18   0.000   0.200   0.000    0.00
   3.300   26.82   -3.64   -0.80   0.000   0.200   0.000    0.00
   3.350   25.79   -2.50   -1.04   0.000   0.200   0.000    0.00
   3.400   26.58   -3.76   -1.21   0.000   0.200   0.000    0.00
   3.450   26.87   -4.52   -1.65   0.000   0.200   0.000    0.00
   3.500   26.03   -5.52   -2.07   0.000   0.200   0.000    0.00
   3.550   25.24   -3.55   -1.48   0.000   0.200   0.000    0.00
   3.600   25.11   -4.71   -1.03   0.000   0.200   0.000    0.00
   3.650   25.20   -3.79   -0.29   0.000   0.200   0.000    0.00
   3.700   24.76   -4.43   -0.92   0.000   0.200   0.000    0.00
   3.750   25.34   -3.46   -1.89   0.000   0.200   0.000    0.00
   3.800   26.27   -1.13   -2.48   0.000   0.200   0.000    0.00
   3.850   26.47    0.47   -2.87   0.000   0.200   0.000    0.00
   3.900   25.45   -1.71   -3.81   0.000   0.200   0.000    0.00
   3.950   24.67   -0.64   -4.36   0.000   0.200   0.000    0.00
   4.000   25.78   -0.89   -4.23   0.000   0.200   0.000    0.00
   4.050   27.01   -0.30   -3.14   0.000   0.200   0.000    0.00
   4.100   27.55    1.70   -3.84   0.000   0.200   0.000    0.00
   4.150   26.60    6.85   -1.49   0.000   0.200   0.000    0.00
   4.200   26.80    9.59   -0.37   0.000   0.200   0.000    0.00
   4.250   28.19    9.76   -0.94   0.000   0.200   0.000    0.00
   4.300   26.63   11.92   -0.84   0.000   0.200   0.000    0.00
   4.350   26.62   12.42   -0.65   0.000   0.200   0.000    0.00
   4.400   25.74   13.18    1.05   0.000   0.200   0.000    0.00
   4.450   25.43   11.60    1.84   0.000   0.200   0.000    0.00
   4.500   25.06    9.56    0.27   0.000   0.200   0.000    0.00
   4.550   24.53   10.13    0.57   0.000   0.200   0.000    0.00
   4.600   23.82   12.18    1.09   0.000   0.200   0.000    0.00
   4.650   22.83    9.04    1.09   0.000   0.200   0.000    0.00
   4.700   23.24    7.92   -0.49   0.000   0.200   0.000    0.00
   4.750   24.06    6.01   -0.10   0.000   0.200   0.000    0.00
   4.800   24.22    6.82    0.60   0.000   0.200   0.000    0.00
   4.850   24.86    8.62    1.65   0.000   0.200   0.000    0.00
   4.900   23.64    8.13    0.70   0.000   0.200   0.000    0.00
   4.950   22.72   10.18    1.90   0.000   0.200   0.000    0.00
   5.000   23.43    8.79    1.04   0.000   0.200   0.000    0.00
   5.050   22.78    7.13    0.81   0.000   0.200   0.000    0.00
   5.100   23.05    5.92    0.66   0.000   0.200   0.000    0.00
   5.150   22.83    5.52    0.03   0.000   0.200   0.000    0.00
   5.200   23.05    3.13    0.49   0.000   0.200   0.000    0.00
   5.250   23.83    4.44    1.62   0.000   0.200   0.000    0.00
   5.300   25.39    3.64    1.49   0.000   0.200   0.000    0.00
   5.350   25.16    2.86    1.13   0.000   0.200   0.000    0.00
   5.400   26.83    3.38    1.59   0.000   0.200   0.000    0.00
   5.450   26.60    4.71    1.65   0.000   0.200   0.000    0.00
   5.500   26.99   -1.41   -0.23   0.000   0.200   0.000    0.00
   5.550   27.21   -2.47   -0.71   0.000   0.200   0.000    0.00
   5.600   26.15    1.80   -0.26   0.000   0.200   0.000    0.00
   5.650   27.02    1.95    0.70   0.000   0.200   0.000    0.00
   5.700   26.77    1.11   -1.07   0.000   0.200   0.000    0.00
   5.750   25.24   -2.29   -2.64   0.000   0.200   0.000    0.00
   5.800   25.76   -3.15   -1.52   0.000   0.200   0.000    0.00
   5.850   26.24   -1.15   -1.63   0.000   0.200   0.000    0.00
   5.900   25.21   -2.50   -2.69   0.000   0.200   0.000    0.00
   5.950   26.18   -3.59   -1.69   0.000   0.200   0.000    0.00
   6.000   26.76   -2.69   -1.06   0.000   0.200   0.000    0.00
   6.050   26.58   -1.31   -1.75   0.000   0.200   0.000    0.00
   6.100   27.44   -1.20   -1.08   0.000   0.200   0.000    0.00
   6.150   27.92   -4.28   -0.31   0.000   0.200   0.000    0.00
   6.200   29.75   -5.21   -1.75   0.000   0.200   0.000    0.00
   6.250   28.24   -5.68   -2.75   0.000   0.200   0.000    0.00
   6.300   28.39   -6.88   -1.95   0.000   0.200   0.000    0.00
   6.350   30.09   -6.08   -2.71   0.000   0.200   0.000    0.00
   6.400   30.55   -5.30   -2.53   0.000   0.200   0.000    0.00
   6.450   29.50   -4.11   -3.20   0.000   0.200   0.000    0.00
   6.500   29.05   -6.65   -3.13   0.000   0.200   0.000    0.00
   6.550   28.68  -10.94   -3.89   0.000   0.200   0.000    0.00
   6.600   30.05  -10.26   -3.52   0.000   0.200   0.000    0.00
   6.650   30.41   -9.64   -5.40   0.000   0.200   0.000    0.00
   6.700   30.83   -8.80   -6.16   0.000   0.200   0.000    0.00
   6.750   31.51  -10.24   -5.05   0.000   0.200   0.000    0.00
   6.800   31.54   -7.23   -5.22   0.000   0.200   0.000    0.00
   6.850   32.08   -6.16   -5.90   0.000   0.200   0.000    0.00
   6.900   31.45   -4.70   -5.84   0.000   0.200   0.000    0.00
   6.950   31.74   -7.93   -5.66   0.000   0.200   0.000    0.00
   7.000   32.82   -9.25   -4.84   0.000   0.200   0.000    0.00
   7.050   33.24   -7.24   -2.49   0.000   0.200   0.000    0.00
   7.100   32.07   -5.65   -2.66   0.000   0.200   0.000    0.00
   7.150   33.48   -6.39   -2.06   0.000   0.200   0.000    0.00
   7.200   33.58   -6.67   -2.54   0.000   0.200   0.000    0.00
   7.250   35.11   -4.66   -2.83   0.000   0.200   0.000    0.00
   7.300   34.28   -3.14   -2.41   0.000   0.200   0.000    0.00
   7.350   34.82   -4.46   -5.06   0.000   0.200   0.000    0.00
   7.400   34.66   -2.88   -5.38   0.000   0.200   0.000    0.00
   7.450   34.29    0.88   -5.54   0.000   0.200   0.000    0.00
   7.500   35.20   -0.15   -4.02   0.000   0.200   0.000    0.00
   7.550   34.31   -1.42   -4.41   0.000   0.200   0.000    0.00
   7.600   33.97    0.41   -4.65   0.000   0.200   0.000    0.00
   7.650   32.78   -0.26   -4.40   0.000   0.200   0.000    0.00
   7.700   34.12   -1.29   -3.52   0.000   0.200   0.000    0.00
   7.750   33.79   -2.88   -3.27   0.000   0.200   0.000    0.00
   7.800   34.37   -3.23   -2.29   0.000   0.200   0.000    0.00
   7.850   35.70   -5.70   -2.87   0.000   0.200   0.000    0.00
   7.900   35.75   -2.90   -4.24   0.000   0.200   0.000    0.00
   7.950   36.63   -0.92   -4.26   0.000   0.200   0.000    0.00
   8.000   36.18   -2.91   -3.14   0.000   0.200   0.000    0.00
   8.050   36.31   -3.10   -2.44   0.000   0.200   0.000    0.00
   8.100   35.51   -3.30   -1.29   0.000   0.200   0.000    0.00
   8.150   36.15   -3.74   -1.35   0.000   0.200   0.000    0.00
   8.200   35.27   -4.37   -1.25   0.000   0.200   0.000    0.00
   8.250   35.77   -4.77   -2.71   0.000   0.200   0.000    0.00
   8.300   36.10   -3.57   -2.54   0.000   0.200   0.000    0.00
   8.350   34.56   -4.20   -2.01   0.000   0.200   0.000    0.00
   8.400   33.73   -2.17   -2.38   0.000   0.200   0.000    0.00
   8.450   35.04   -2.48   -2.91   0.000   0.200   0.000    0.00
   8.500   33.59   -5.37   -2.90   0.000   0.200   0.000    0.00
   8.550   32.28   -5.88   -3.17   0.000   0.200   0.000    0.00
   8.600   32.04   -5.36   -2.35   0.000   0.200   0.000    0.00
   8.650   32.92   -6.46   -2.04   0.000   0.200   0.000    0.00
   8.700   33.06   -4.64   -1.86   0.000   0.200   0.000    0.00
   8.750   32.99   -2.73   -1.49   0.000   0.200   0.000    0.00
   8.800   33.23   -3.87   -3.37   0.000   0.200   0.000    0.00
   8.850   33.00   -1.91   -4.30   0.000   0.200   0.000    0.00
   8.900   32.16   -1.94   -3.45   0.000   0.200   0.000    0.00
   8.950   30.80   -1.03   -4.20   0.000   0.200   0.000    0.00
   9.000   31.12   -1.77   -4.79   0.000   0.200   0.000    0.00
   9.050   30.88   -3.19   -4.40   0.000   0.200   0.000    0.00
   9.100   30.41   -2.87   -4.51   0.000   0.200   0.000    0.00
   9.150   30.90   -3.83   -3.30   0.000   0.200   0.000    0.00
   9.200   30.40   -3.02   -2.80   0.000   0.200   0.000    0.00
   9.250   29.90   -4.04   -1.88   0.000   0.200   0.000    0.00
   9.300   29.69   -4.17   -1.46   0.000   0.200   0.000    0.00
   9.350   28.40   -3.47   -1.02   0.000   0.200   0.000    0.00
   9.400   29.19   -1.67   -1.35   0.000   0.200   0.000    0.00
   9.450   29.40   -1.19   -1.20   0.000   0.200   0.000    0.00
   9.500   29.43   -4.58   -1.97   0.000   0.200   0.000    0.00
   9.550   29.54   -4.62   -1.70   0.000   0.200   0.000    0.00
   9.600   28.65   -5.20    0.00   0.000   0.200   0.000    0.00
   9.650   29.08   -3.39    1.44   0.000   0.200   0.000    0.00
   9.700   28.33   -1.79    0.54   0.000   0.200   0.000    0.00
   9.750   28.56   -3.37    1.21   0.000   0.200   0.000    0.00
   9.800   28.82   -2.46    2.02   0.000   0.200   0.000    0.00
   9.850   30.01   -1.18    2.27   0.000   0.200   0.000    0.00
   9.900   30.19   -3.07    2.36   0.000   0.200   0.000    0.00
   9.950   29.09   -5.32    2.95   0.000   0.200   0.000    0.00
  10.000   28.27   -3.57    3.80   0.000   0.200   0.000    0.00
  10.050   28.50   -5.20    3.64   0.000   0.200   0.000    0.00
  10.100   28.36   -6.68    4.42   0.000   0.200   0.000    0.00
  10.150   30.24   -2.90    3.36   0.000   0.200   0.000    0.00
  10.200   30.82   -6.28    3.47   0.000   0.200   0.000    0.00
  10.250   30.89   -3.72    2.63   0.000   0.200   0.000    0.00
  10.300   30.45   -5.10    1.15   0.000   0.200   0.000    0.00
  10.350   30.39   -5.89    0.51   0.000   0.200   0.000    0.00
  10.400   30.37   -3.72    0.75   0.000   0.200   0.000    0.00
  10.450   30.53   -4.68    0.75   0.000   0.200   0.000    0.00
  10.500   30.31   -6.54   -0.57   0.000   0.200   0.000    0.00
  10.550   29.56   -7.74   -0.69   0.000   0.200   0.000    0.00
  10.600   30.30   -7.30   -2.13   0.000   0.200   0.000    0.00
  10.650   30.28   -8.66   -1.23   0.000   0.200   0.000    0.00
  10.700   29.62   -7.37   -1.00   0.000   0.200   0.000    0.00
  10.750   29.48   -7.31   -2.14   0.000   0.200   0.000    0.00
  10.800   29.39   -4.18   -1.48   0.000   0.200   0.000    0.00
  10.850   27.67   -3.97   -0.60   0.000   0.200   0.000    0.00
  10.900   27.58   -4.38   -0.09   0.000   0.200   0.000    0.00
  10.950   28.27   -4.22   -0.71   0.000   0.200   0.000    0.00
  11.000   28.21   -3.92   -0.17   0.000   0.200   0.000    0.00
  11.050   26.99   -4.11   -1.46   0.000   0.200   0.000    0.00
  11.100   27.54   -4.16   -1.47   0.000   0.200   0.000    0.00
  11.150   26.28   -2.74   -0.77   0.000   0.200   0.000    0.00
  11.200   25.61   -4.26    0.16   0.000   0.200   0.000    0.00
  11.250   26.37   -5.53    1.38   0.000   0.200   0.000    0.00
  11.300   26.34   -8.33    2.36   0.000   0.200   0.000    0.00
  11.350   27.19   -6.99    3.73   0.000   0.200   0.000    0.00
  11.400   26.95   -7.47    2.33   0.000   0.200   0.000    0.00
  11.450   26.88   -6.80    2.41   0.000   0.200   0.000    0.00
  11.500   27.05   -5.44    2.85   0.000   0.200   0.000    0.00
  11.550   27.45   -4.84    2.01   0.000   0.200   0.000    0.00
  11.600   26.49   -3.25    2.80   0.000   0.200   0.000    0.00
  11.650   26.36   -2.45    1.94   0.000   0.200   0.000    0.00
  11.700   26.97   -1.29    1.18   0.000   0.200   0.000    0.00
  11.750   27.57   -1.65    1.59   0.000   0.200   0.000    0.00
  11.800   28.82   -1.80    2.84   0.000   0.200   0.000    0.00
  11.850   27.49   -0.37    2.22   0.000   0.200   0.000    0.00
  11.900   26.95    0.10    2.13   0.000   0.200   0.000    0.00
  11.950   28.02   -1.52    1.93   0.000   0.200   0.000    0.00
  12.000   26.89   -2.31    1.64   0.000   0.200   0.000    0.00
  12.050   27.90   -2.34    0.26   0.000   0.200   0.000    0.00
  12.100   28.01   -6.10    0.82   0.000   0.200   0.000    0.00
  12.150   28.97   -3.52   -0.34   0.000   0.200   0.000    0.00
  12.200   28.18   -3.39    0.10   0.000   0.200   0.000    0.00
  12.250   28.17    1.32    0.50   0.000   0.200   0.000    0.00
  12.300   28.06   -2.26   -0.52   0.000   0.200   0.000    0.00
  12.350   28.02   -2.43    0.86   0.000   0.200   0.000    0.00
  12.400   28.05   -3.48    0.80   0.000   0.200   0.000    0.00
  12.450   28.19   -4.03    1.89   0.000   0.200   0.000    0.00
  12.500   28.14   -5.15    1.28   0.000   0.200   0.000    0.00
  12.550   29.18   -3.14    1.88   0.000   0.200   0.000    0.00
  12.600   29.55   -3.92    1.17   0.000   0.200   0.000    0.00
  12.650   30.00   -3.50    1.16   0.000   0.200   0.000    0.00
  12.700   29.79   -3.51    0.95   0.000   0.200   0.000    0.00
  12.750   29.83   -4.67    2.22   0.000   0.200   0.000    0.00
  12.800   28.29   -4.16    1.65   0.000   0.200   0.000    0.00
  12.850   28.74   -3.04    1.82   0.000   0.200   0.000    0.00
  12.900   28.30   -2.74    1.23   0.000   0.200   0.000    0.00
  12.950   28.59   -0.79   -0.10   0.000   0.200   0.000    0.00
  13.000   28.12    1.12    1.68   0.000   0.200   0.000    0.00
  13.050   29.14   -2.15    1.05   0.000   0.200   0.000    0.00
  13.100   30.16   -5.48    0.50   0.000   0.200   0.000    0.00
  13.150   30.49   -3.58   -0.31   0.000   0.200   0.000    0.00
  13.200   30.22   -4.62   -0.04   0.000   0.200   0.000    0.00
  13.250   31.25   -5.55   -0.42   0.000   0.200   0.000    0.00
  13.300   31.58   -5.17    0.08   0.000   0.200   0.000    0.00
  13.350   31.35   -5.05    0.26   0.000   0.200   0.000    0.00
  13.400   31.32   -3.64   -2.32   0.000   0.200   0.000    0.00
  13.450   31.69   -4.19   -3.08   0.000   0.200   0.000    0.00
  13.500   30.27   -2.93   -2.39   0.000   0.200   0.000    0.00
  13.550   29.23   -4.96   -1.10   0.000   0.200   0.000    0.00
  13.600   29.67   -4.36   -0.02   0.000   0.200   0.000    0.00
  13.650   29.25   -7.42   -0.41   0.000   0.200   0.000    0.00
  13.700   29.15   -5.35   -0.95   0.000   0.200   0.000    0.00
  13.750   29.68   -5.61   -0.16   0.000   0.200   0.000    0.00
  13.800   30.12   -3.06    1.14   0.000   0.200   0.000    0.00
  13.850   30.50   -5.05   -0.73   0.000   0.200   0.000    0.00
  13.900   29.51   -8.32    1.14   0.000   0.200   0.000    0.00
  13.950   29.27   -7.20    2.46   0.000   0.200   0.000    0.00
  14.000   28.90  -10.04    1.17   0.000   0.200   0.000    0.00
  14.050   28.20   -8.36    0.21   0.000   0.200   0.000    0.00
  14.100   27.08   -5.15    0.09   0.000   0.200   0.000    0.00
  14.150   27.16   -5.86    0.05   0.000   0.200   0.000    0.00
  14.200   27.79   -1.27   -0.21   0.000   0.200   0.000    0.00
  14.250   27.66    0.03    0.66   0.000   0.200   0.000    0.00
  14.300   29.28    0.12    0.23   0.000   0.200   0.000    0.00
  14.350   29.37   -2.35    0.24   0.000   0.200   0.000    0.00
  14.400   28.72   -0.03   -0.71   0.000   0.200   0.000    0.00
  14.450   29.16   -2.96   -1.28   0.000   0.200   0.000    0.00
  14.500   30.58   -3.84   -0.51   0.000   0.200   0.000    0.00
  14.550   30.18   -3.65   -0.80   0.000   0.200   0.000    0.00
  14.600   29.29   -4.70   -0.29   0.000   0.200   0.000    0.00
  14.650   29.64   -5.29   -0.96   0.000   0.200   0.000    0.00
  14.700   30.29   -4.27   -0.87   0.000   0.200   0.000    0.00
  14.750   31.00   -5.42   -0.79   0.000   0.200   0.000    0.00
  14.800   30.08   -6.75   -1.22   0.000   0.200   0.000    0.00
  14.850   29.64   -4.32    0.69   0.000   0.200   0.000    0.00
  14.900   29.01   -4.46    1.54   0.000   0.200   0.000    0.00
  14.950   29.82   -4.36    0.17   0.000   0.200   0.000    0.00
  15.000   29.80   -4.59   -0.17   0.000   0.200   0.000    0.00
  15.050   29.90   -6.13    0.35   0.000   0.200   0.000    0.00
  15.100   30.88   -5.89   -1.56   0.000   0.200   0.000    0.00
  15.150   31.15   -1.62   -0.61   0.000   0.200   0.000    0.00
  15.200   31.47   -3.05    0.00   0.000   0.200   0.000    0.00
  15.250   31.37   -2.72   -1.00   0.000   0.200   0.000    0.00
  15.300   31.52   -5.17   -1.17   0.000   0.200   0.000    0.00
  15.350   31.68   -6.22   -1.13   0.000   0.200   0.000    0.00
  15.400   32.75   -4.93    0.12   0.000   0.200   0.000    0.00
  15.450   32.25   -6.93   -0.02   0.000   0.200   0.000    0.00
  15.500   30.86   -5.12   -1.72   0.000   0.200   0.000    0.00
  15.550   32.68   -6.45   -1.31   0.000   0.200   0.000    0.00
  15.600   33.41   -4.99    0.19   0.000   0.200   0.000    0.00
  15.650   32.75   -5.85   -0.41   0.000   0.200   0.000    0.00
  15.700   32.64   -4.80   -1.07   0.000   0.200   0.000    0.00
  15.750   31.80   -8.73   -0.38   0.000   0.200   0.000    0.00
  15.800   31.29   -7.19   -0.74   0.000   0.200   0.000    0.00
  15.850   31.30   -5.95   -1.84   0.000   0.200   0.000    0.00
  15.900   31.54   -7.33   -1.22   0.000   0.200   0.000    0.00
  15.950   31.82  -10.33   -1.50   0.000   0.200   0.000    0.00
  16.000   31.56  -10.01   -1.04   0.000   0.200   0.000    0.00
  16.050   31.16   -8.94   -0.75   0.000   0.200   0.000    0.00
  16.100   29.30   -6.50   -0.02   0.000   0.200   0.000    0.00
  16.150   29.56   -5.51   -0.75   0.000   0.200   0.000    0.00
  16.200   29.80   -5.24   -0.77   0.000   0.200   0.000    0.00
  16.250   31.14   -3.51   -2.38   0.000   0.200   0.000    0.00
  16.300   31.88   -4.16   -1.52   0.000   0.200   0.000    0.00
  16.350   30.64   -4.69   -1.61   0.000   0.200   0.000    0.00
  16.400   30.10   -6.15   -0.64   0.000   0.200   0.000    0.00
  16.450   30.14   -5.63    0.22   0.000   0.200   0.000    0.00
  16.500   30.34   -2.28   -0.18   0.000   0.200   0.000    0.00
  16.550   29.75   -2.33    1.79   0.000   0.200   0.000    0.00
  16.600   31.37   -5.25    1.82   0.000   0.200   0.000    0.00
  16.650   31.57   -7.39    0.92   0.000   0.200   0.000    0.00
  16.700   32.09   -6.94    1.69   0.000   0.200   0.000    0.00
  16.750   31.64   -6.15    1.67   0.000   0.200   0.000    0.00
  16.800   32.19   -4.15    2.23   0.000   0.200   0.000    0.00
  16.850   31.90   -3.61    0.69   0.000   0.200   0.000    0.00
  16.900   32.17   -5.03   -0.29   0.000   0.200   0.000    0.00
  16.950   32.47   -6.00   -0.28   0.000   0.200   0.000    0.00
  17.000   31.47   -6.14    1.47   0.000   0.200   0.000    0.00
  17.050   30.88   -4.64    1.46   0.000   0.200   0.000    0.00
  17.100   30.93   -5.20    0.53   0.000   0.200   0.000    0.00
  17.150   31.05   -5.50    1.70   0.000   0.200   0.000    0.00
  17.200   31.74   -5.49    1.38   0.000   0.200   0.000    0.00
  17.250   30.83   -4.01    1.98   0.000   0.200   0.000    0.00
  17.300   31.49   -2.82    1.39   0.000   0.200   0.000    0.00
  17.350   31.89   -3.11    1.57   0.000   0.200   0.000    0.00
  17.400   32.86   -2.96    1.10   0.000   0.200   0.000    0.00
  17.450   33.16   -2.66    0.23   0.000   0.200   0.000    0.00
  17.500   31.17   -3.32    0.11   0.000   0.200   0.000    0.00
  17.550   31.50   -2.30   -0.46   0.000   0.200   0.000    0.00
  17.600   31.38   -1.35   -0.01   0.000   0.200   0.000    0.00
  17.650   31.21   -1.13   -0.93   0.000   0.200   0.000    0.00
  17.700   30.10   -2.01   -3.07   0.000   0.200   0.000    0.00
  17.750   30.12   -2.13   -2.70   0.000   0.200   0.000    0.00
  17.800   30.32   -2.10   -2.08   0.000   0.200   0.000    0.00
  17.850   30.24   -5.56   -0.45   0.000   0.200   0.000    0.00
  17.900   30.36   -3.80    0.75   0.000   0.200   0.000    0.00
  17.950   32.00   -3.05    2.02   0.000   0.200   0.000    0.00
  18.000   30.82   -3.70    1.98   0.000   0.200   0.000    0.00
  18.050   29.88   -7.36    2.65   0.000   0.200   0.000    0.00
  18.100   29.97   -8.44    2.57   0.000   0.200   0.000    0.00
  18.150   29.35   -7.94    3.29   0.000   0.200   0.000    0.00
  18.200   30.18   -7.41    2.50   0.000   0.200   0.000    0.00
  18.250   32.56   -7.67    1.46   0.000   0.200   0.000    0.00
  18.300   32.60   -7.87    2.72   0.000   0.200   0.000    0.00
  18.350   33.07   -9.02    3.78   0.000   0.200   0.000    0.00
  18.400   32.81  -12.75    3.84   0.000   0.200   0.000    0.00
  18.450   32.83  -10.21    4.91   0.000   0.200   0.000    0.00
  18.500   33.95   -8.93    3.71   0.000   0.200   0.000    0.00
  18.550   32.58   -9.87    3.12   0.000   0.200   0.000    0.00
  18.600   33.74   -8.87    3.87   0.000   0.200   0.000    0.00
  18.650   33.87   -8.77    4.87   0.000   0.200   0.000    0.00
  18.700   33.41   -9.95    2.56   0.000   0.200   0.000    0.00
  18.750   33.96   -7.82    2.12   0.000   0.200   0.000    0.00
  18.800   32.97   -8.61    2.17   0.000   0.200   0.000    0.00
  18.850   32.22   -6.84    1.08   0.000   0.200   0.000    0.00
  18.900   30.96   -9.65    2.61   0.000   0.200   0.000    0.00
  18.950   30.26   -7.33    2.59   0.000   0.200   0.000    0.00
  19.000   30.26   -3.74    2.18   0.000   0.200   0.000    0.00
  19.050   31.19   -5.88    1.27   0.000   0.200   0.000    0.00
  19.100   31.27   -3.37    0.22   0.000   0.200   0.000    0.00
  19.150   31.72   -3.56    0.49   0.000   0.200   0.000    0.00
  19.200   32.61   -3.52    1.20   0.000   0.200   0.000    0.00
  19.250   33.42   -3.05    1.26   0.000   0.200   0.000    0.00
  19.300   31.95   -4.16    0.45   0.000   0.200   0.000    0.00
  19.350   31.94   -5.46   -0.99   0.000   0.200   0.000    0.00
  19.400   31.59   -4.15    0.90   0.000   0.200   0.000    0.00
  19.450   31.92   -5.14    1.33   0.000   0.200   0.000    0.00
  19.500   32.84   -4.65    1.92   0.000   0.200   0.000    0.00
  19.550   32.58   -3.12    2.97   0.000   0.200   0.000    0.00
  19.600   33.87   -3.81    2.30   0.000   0.200   0.000    0.00
  19.650   33.83   -4.44    2.28   0.000   0.200   0.000    0.00
  19.700   33.31   -1.23    2.47   0.000   0.200   0.000    0.00
  19.750   33.38   -1.60    2.58   0.000   0.200   0.000    0.00
  19.800   35.17   -3.52    1.52   0.000   0.200   0.000    0.00
  19.850   34.45   -3.38    1.73   0.000   0.200   0.000    0.00
  19.900   34.65   -4.67    0.34   0.000   0.200   0.000    0.00
  19.950   34.41   -4.22   -0.17   0.000   0.200   0.000    0.00
  20.000   35.05   -5.64    0.32   0.000   0.200   0.000    0.00
  20.050   34.03   -5.66   -0.60   0.000   0.200   0.000    0.00
  20.100   34.18   -3.76   -0.16   0.000   0.200   0.000    0.00
  20.150   33.52   -4.40    0.82   0.000   0.200   0.000    0.00
  20.200   33.44   -3.84    2.02   0.000   0.200   0.000    0.00
  20.250   33.88   -5.50   -0.14   0.000   0.200   0.000    0.00
  20.300   35.14   -4.23    0.71   0.000   0.200   0.000    0.00
  20.350   35.81   -5.01    1.64   0.000   0.200   0.000    0.00
  20.400   35.90   -4.98    1.67   0.000   0.200   0.000    0.00
  20.450   35.05   -2.91    3.39   0.000   0.200   0.000    0.00
  20.500   35.54   -2.48    2.95   0.000   0.200   0.000    0.00
  20.550   36.63   -5.13    2.34   0.000   0.200   0.000    0.00
  20.600   37.20   -6.56    3.12   0.000   0.200   0.000    0.00
  20.650   36.63   -7.31    2.80   0.000   0.200   0.000    0.00
  20.700   36.80   -6.25    2.41   0.000   0.200   0.000    0.00
  20.750   37.05   -4.84    3.37   0.000   0.200   0.000    0.00
  20.800   37.02   -5.99    2.87   0.000   0.200   0.000    0.00
  20.850   36.32   -5.33    1.74   0.000   0.200   0.000    0.00
  20.900   36.85   -4.98    1.41   0.000   0.200   0.000    0.00
  20.950   37.45   -5.64    0.76   0.000   0.200   0.000    0.00
  21.000   35.83   -4.00    0.83   0.000   0.200   0.000    0.00
  21.050   34.44   -4.17   -0.38   0.000   0.200   0.000    0.00
  21.100   33.84   -4.69   -0.18   0.000   0.200   0.000    0.00
  21.150   34.45   -6.16   -2.04   0.000   0.200   0.000    0.00
  21.200   33.81   -7.13   -1.35   0.000   0.200   0.000    0.00
  21.250   34.27   -7.45   -1.08   0.000   0.200   0.000    0.00
  21.300   35.17   -8.98   -0.86   0.000   0.200   0.000    0.00
  21.350   35.72   -9.65   -0.16   0.000   0.200   0.000    0.00
  21.400   35.06   -8.10    0.01   0.000   0.200   0.000    0.00
  21.450   34.93  -10.54    0.40   0.000   0.200   0.000    0.00
  21.500   34.16  -12.28    1.22   0.000   0.200   0.000    0.00
  21.550   33.85   -9.78    0.69   0.000   0.200   0.000    0.00
  21.600   34.83  -10.13    0.55   0.000   0.200   0.000    0.00
  21.650   35.94  -11.10    1.23   0.000   0.200   0.000    0.00
  21.700   35.97  -10.55    0.26   0.000   0.200   0.000    0.00
  21.750   34.93   -9.61   -0.08   0.000   0.200   0.000    0.00
  21.800   35.02   -9.35    0.33   0.000   0.200   0.000    0.00
  21.850   36.26   -8.18    0.75   0.000   0.200   0.000    0.00
  21.900   38.39   -7.77   -0.90   0.000   0.200   0.000    0.00
  21.950   37.40   -8.29   -1.24   0.000   0.200   0.000    0.00
  22.000   36.34   -7.94   -1.89   0.000   0.200   0.000    0.00
  22.050   35.03   -8.01   -1.99   0.000   0.200   0.000    0.00
  22.100   34.51   -8.01   -1.04   0.000   0.200   0.000    0.00
  22.150   33.52  -10.41   -0.88   0.000   0.200   0.000    0.00
  22.200   34.28   -9.51   -0.72   0.000   0.200   0.000    0.00
  22.250   32.65   -7.71   -1.87   0.000   0.200   0.000    0.00
  22.300   32.14   -9.04   -1.19   0.000   0.200   0.000    0.00
  22.350   32.41   -8.99   -0.38   0.000   0.200   0.000    0.00