! This hub-height wind-speed file was generated by TurbSim (v1.06.00, 21-Sep-2012) on 03-Feb-2018 at 23:28:22.
!
! The requested statistics for this data were:
!    Mean Total Wind Speed =    7.000 m/s
!    Turbulence Intensity  =   21.700%
!
!   Time  HorSpd  WndDir  VerSpd  HorShr  VerShr  LnVShr  GstSpd
!  (sec)   (m/s)   (deg)   (m/s)     (-)     (-)     (-)   (m/s)
   0.000    7.96   -5.50   -0.88   0.000   0.200   0.000    0.00
   0.050    8.10   -5.55   -0.77   0.000   0.200   0.000    0.00
   0.100    8.13   -7.62   -0.57   0.000   0.200   0.000    0.00
   0.150    7.73   -7.35   -0.66   0.000   0.200   0.000    0.00
   0.200    7.75   -5.56   -0.77   0.000   0.200   0.000    0.00
   0.250    7.79   -5.97   -1.11   0.000   0.200   0.000    0.00
   0.300    7.61   -6.48   -1.29   0.000   0.200   0.000    0.00
   0.350    7.56   -5.16   -1.34   0.000   0.200   0.000    0.00
   0.400    7.51   -5.54   -0.99   0.000   0.200   0.000    0.00
   0.450    7.38   -5.10   -0.86   0.000   0.200   0.000    0.00
   0.500    7.29   -6.80   -1.07   0.000   0.200   0.000    0.00
   0.550    7.20   -5.67   -1.29   0.000   0.200   0.000    0.00
   0.600    7.19   -8.84   -0.69   0.000   0.200   0.000    0.00
   0.650    7.53   -4.91   -0.61   0.000   0.200   0.000    0.00
   0.700    7.32   -6.63   -0.50   0.000   0.200   0.000    0.00
   0.750    7.22   -7.09   -0.38   0.000   0.200   0.000    0.00
   0.800    6.80   -8.22   -0.66   0.000   0.200   0.000    0.00
   0.850    6.46   -4.73   -0.69   0.000   0.200   0.000    0.00
   0.900    6.52   -4.34   -0.26   0.000   0.200   0.000    0.00
   0.950    6.80   -4.47   -0.41   0.000   0.200   0.000    0.00
   1.000    6.84   -1.59   -0.58   0.000   0.200   0.000    0.00
   1.050    6.78   -3.24   -0.58   0.000   0.200   0.000    0.00
   1.100    6.90   -2.51   -0.68   0.000   0.200   0.000    0.00
   1.150    6.86   -2.00   -0.97   0.000   0.200   0.000    0.00
   1.200    6.63   -2.91   -1.09   0.000   0.200   0.000    0.00
   1.250    6.89   -2.12   -1.40   0.000   0.200   0.000    0.00
   1.300    7.08   -1.68   -1.28   0.000   0.200   0.000    0.00
   1.350    6.91   -1.02   -1.55   0.000   0.200   0.000    0.00
   1.400    7.03    0.93   -1.64   0.000   0.200   0.000    0.00
   1.450    7.27   -1.48   -1.83   0.000   0.200   0.000    0.00
   1.500    7.47   -3.32   -1.78   0.000   0.200   0.000    0.00
   1.550    7.55   -1.36   -1.46   0.000   0.200   0.000    0.00
   1.600    7.52   -1.26   -1.24   0.000   0.200   0.000    0.00
   1.650    7.29   -1.19   -1.18   0.000   0.200   0.000    0.00
   1.700    7.08   -2.03   -1.35   0.000   0.200   0.000    0.00
   1.750    7.32   -3.71   -1.37   0.000   0.200   0.000    0.00
   1.800    7.50   -5.65   -1.29   0.000   0.200   0.000    0.00
   1.850    7.19   -4.66   -1.37   0.000   0.200   0.000    0.00
   1.900    7.35   -5.32   -1.29   0.000   0.200   0.000    0.00
   1.950    7.36   -4.12   -0.75   0.000   0.200   0.000    0.00
   2.000    7.29   -7.06   -0.33   0.000   0.200   0.000    0.00
   2.050    7.40  -11.57   -0.75   0.000   0.200   0.000    0.00
   2.100    7.74  -10.81   -0.63   0.000   0.200   0.000    0.00
   2.150    7.54  -10.82   -0.64   0.000   0.200   0.000    0.00
   2.200    7.62  -11.83   -0.60   0.000   0.200   0.000    0.00
   2.250    7.46   -8.22   -0.75   0.000   0.200   0.000    0.00
   2.300    7.49  -11.05   -0.57   0.000   0.200   0.000    0.00
   2.350    7.12   -7.26   -0.56   0.000   0.200   0.000    0.00
   2.400    6.82   -8.25   -0.79   0.000   0.200   0.000    0.00
   2.450    6.88   -9.48   -0.43   0.000   0.200   0.000    0.00
   2.500    6.95   -6.37   -0.07   0.000   0.200   0.000    0.00
   2.550    6.90   -5.03   -0.25   0.000   0.200   0.000    0.00
   2.600    6.83   -4.64   -0.06   0.000   0.200   0.000    0.00
   2.650    6.65   -5.59   -0.09   0.000   0.200   0.000    0.00
   2.700    6.39   -7.16    0.08   0.000   0.200   0.000    0.00
   2.750    6.23   -9.39    0.16   0.000   0.200   0.000    0.00
   2.800    6.52  -10.18    0.25   0.000   0.200   0.000    0.00
   2.850    6.98   -9.76    0.22   0.000   0.200   0.000    0.00
   2.900    6.66  -10.69    0.29   0.000   0.200   0.000    0.00
   2.950    6.73  -12.17    0.54   0.000   0.200   0.000    0.00
   3.000    7.00  -13.89    0.32   0.000   0.200   0.000    0.00
   3.050    7.27  -10.63    0.49   0.000   0.200   0.000    0.00
   3.100    7.34  -10.54    0.53   0.000   0.200   0.000    0.00
   3.150    7.31   -9.62    0.79   0.000   0.200   0.000    0.00
   3.200    7.07  -11.99    0.92   0.000   0.200   0.000    0.00
   3.250    7.05  -10.77    0.75   0.000   0.200   0.000    0.00
   3.300    6.83  -11.06    0.64   0.000   0.200   0.000    0.00
   3.350    6.94   -9.64    0.46   0.000   0.200   0.000    0.00
   3.400    6.92   -7.86    0.09   0.000   0.200   0.000    0.00
   3.450    6.81   -6.71    0.27   0.000   0.200   0.000    0.00
   3.500    7.07   -4.68   -0.09   0.000   0.200   0.000    0.00
   3.550    7.17   -1.79    0.13   0.000   0.200   0.000    0.00
   3.600    7.13    0.62    0.25   0.000   0.200   0.000    0.00
   3.650    7.18   -2.40    0.13   0.000   0.200   0.000    0.00
   3.700    7.22   -1.60    0.05   0.000   0.200   0.000    0.00
   3.750    7.24   -5.24   -0.10   0.000   0.200   0.000    0.00
   3.800    7.21   -1.73   -0.04   0.000   0.200   0.000    0.00
   3.850    7.48   -0.57   -0.03   0.000   0.200   0.000    0.00
   3.900    7.56   -0.48    0.07   0.000   0.200   0.000    0.00
   3.950    7.23   -0.44    0.11   0.000   0.200   0.000    0.00
   4.000    7.07   -0.25    0.04   0.000   0.200   0.000    0.00
   4.050    7.16   -0.08   -0.02   0.000   0.200   0.000    0.00
   4.100    7.08    0.06   -0.08   0.000   0.200   0.000    0.00
   4.150    7.19   -2.98    0.32   0.000   0.200   0.000    0.00
   4.200    7.40   -2.62    0.14   0.000   0.200   0.000    0.00
   4.250    7.73   -2.03    0.42   0.000   0.200   0.000    0.00
   4.300    7.46   -0.14    0.38   0.000   0.200   0.000    0.00
   4.350    7.27    0.72    0.14   0.000   0.200   0.000    0.00
   4.400    7.58    0.27   -0.02   0.000   0.200   0.000    0.00
   4.450    7.49    0.74   -0.17   0.000   0.200   0.000    0.00
   4.500    7.44    3.72    0.08   0.000   0.200   0.000    0.00
   4.550    7.58    2.58   -0.05   0.000   0.200   0.000    0.00
   4.600    7.62    4.18   -0.06   0.000   0.200   0.000    0.00
   4.650    7.39    3.30    0.25   0.000   0.200   0.000    0.00
   4.700    7.42   -0.89    0.42   0.000   0.200   0.000    0.00
   4.750    7.36   -2.26    0.28   0.000   0.200   0.000    0.00
   4.800    7.16    1.72    1.05   0.000   0.200   0.000    0.00
   4.850    7.31    1.58    0.77   0.000   0.200   0.000    0.00
   4.900    7.13    0.98    0.96   0.000   0.200   0.000    0.00
   4.950    6.96    0.31    1.04   0.000   0.200   0.000    0.00
   5.000    7.07   -0.11    0.79   0.000   0.200   0.000    0.00
   5.050    7.27    1.22    0.71   0.000   0.200   0.000    0.00
   5.100    7.34    3.35    0.68   0.000   0.200   0.000    0.00
   5.150    7.50    7.04    0.58   0.000   0.200   0.000    0.00
   5.200    7.60    8.02    0.51   0.000   0.200   0.000    0.00
   5.250    7.54   11.12    0.67   0.000   0.200   0.000    0.00
   5.300    7.74   12.30    0.85   0.000   0.200   0.000    0.00
   5.350    7.65   11.55    0.90   0.000   0.200   0.000    0.00
   5.400    7.61   10.84    1.10   0.000   0.200   0.000    0.00
   5.450    7.14    7.74    1.32   0.000   0.200   0.000    0.00
   5.500    7.01    4.87    0.71   0.000   0.200   0.000    0.00
   5.550    7.16    6.50    0.41   0.000   0.200   0.000    0.00
   5.600    7.02    7.07    0.58   0.000   0.200   0.000    0.00
   5.650    7.00    5.23    1.33   0.000   0.200   0.000    0.00
   5.700    7.11    5.76    1.04   0.000   0.200   0.000    0.00
   5.750    7.24    2.40    0.80   0.000   0.200   0.000    0.00
   5.800    7.10    4.65    1.14   0.000   0.200   0.000    0.00
   5.850    7.26    7.11    1.18   0.000   0.200   0.000    0.00
   5.900    7.37    7.42    0.82   0.000   0.200   0.000    0.00
   5.950    7.46    7.24    1.26   0.000   0.200   0.000    0.00
   6.000    7.63    4.64    1.10   0.000   0.200   0.000    0.00
   6.050    7.56    2.53    1.48   0.000   0.200   0.000    0.00
   6.100    7.68    4.44    1.58   0.000   0.200   0.000    0.00
   6.150    8.09    4.05    1.46   0.000   0.200   0.000    0.00
   6.200    8.19    5.71    1.17   0.000   0.200   0.000    0.00
   6.250    8.58    6.60    0.68   0.000   0.200   0.000    0.00
   6.300    8.52    6.07    0.62   0.000   0.200   0.000    0.00
   6.350    8.59    7.13    0.74   0.000   0.200   0.000    0.00
   6.400    8.46    4.38    0.93   0.000   0.200   0.000    0.00
   6.450    8.47    4.03    0.93   0.000   0.200   0.000    0.00
   6.500    8.57    5.00    0.85   0.000   0.200   0.000    0.00
   6.550    8.35    1.37    0.70   0.000   0.200   0.000    0.00
   6.600    8.19    1.67    0.75   0.000   0.200   0.000    0.00
   6.650    8.12    2.24    0.77   0.000   0.200   0.000    0.00
   6.700    7.87    1.28    0.49   0.000   0.200   0.000    0.00
   6.750    8.06    1.55    0.82   0.000   0.200   0.000    0.00
   6.800    8.04    2.59    0.65   0.000   0.200   0.000    0.00
   6.850    8.12    1.39    0.68   0.000   0.200   0.000    0.00
   6.900    8.11    2.99    0.96   0.000   0.200   0.000    0.00
   6.950    7.93    2.63    0.55   0.000   0.200   0.000    0.00
   7.000    8.08    0.02    0.89   0.000   0.200   0.000    0.00
   7.050    8.42    1.28    0.65   0.000   0.200   0.000    0.00
   7.100    8.59    2.50    1.03   0.000   0.200   0.000    0.00
   7.150    8.45    2.73    1.15   0.000   0.200   0.000    0.00
   7.200    8.10    3.49    0.96   0.000   0.200   0.000    0.00
   7.250    8.07    6.74    0.84   0.000   0.200   0.000    0.00
   7.300    8.25    2.77    0.49   0.000   0.200   0.000    0.00
   7.350    8.45    2.79    0.33   0.000   0.200   0.000    0.00
   7.400    8.14    5.80    0.38   0.000   0.200   0.000    0.00
   7.450    8.26   10.20   -0.12   0.000   0.200   0.000    0.00
   7.500    8.38   11.13    0.32   0.000   0.200   0.000    0.00
   7.550    8.46   11.56    0.33   0.000   0.200   0.000    0.00
   7.600    8.48   10.36    0.44   0.000   0.200   0.000    0.00
   7.650    8.41    8.78    0.36   0.000   0.200   0.000    0.00
   7.700    8.35   10.62   -0.01   0.000   0.200   0.000    0.00
   7.750    8.81   11.31   -0.10   0.000   0.200   0.000    0.00
   7.800    9.03    8.25   -0.16   0.000   0.200   0.000    0.00
   7.850    9.45    9.57   -0.47   0.000   0.200   0.000    0.00
   7.900    9.37    8.63   -0.56   0.000   0.200   0.000    0.00
   7.950    9.31   12.05   -0.28   0.000   0.200   0.000    0.00
   8.000    8.98   13.42   -0.15   0.000   0.200   0.000    0.00
   8.050    8.85   12.48   -0.36   0.000   0.200   0.000    0.00
   8.100    8.64   12.94   -0.37   0.000   0.200   0.000    0.00
   8.150    8.88   12.82   -0.42   0.000   0.200   0.000    0.00
   8.200    9.02   13.63   -0.32   0.000   0.200   0.000    0.00
   8.250    8.91   12.71   -0.33   0.000   0.200   0.000    0.00
   8.300    9.14    9.33   -0.53   0.000   0.200   0.000    0.00
   8.350    9.32    7.86   -0.59   0.000   0.200   0.000    0.00
   8.400    9.39   11.21   -0.96   0.000   0.200   0.000    0.00
   8.450    9.54   11.54   -1.13   0.000   0.200   0.000    0.00
   8.500    9.41   15.04   -1.15   0.000   0.200   0.000    0.00
   8.550    9.30   15.23   -1.35   0.000   0.200   0.000    0.00
   8.600    9.38   14.94   -1.21   0.000   0.200   0.000    0.00
   8.650    9.34   15.93   -1.21   0.000   0.200   0.000    0.00
   8.700    9.65   15.30   -1.03   0.000   0.200   0.000    0.00
   8.750    9.51   14.06   -1.09   0.000   0.200   0.000    0.00
   8.800    9.45   14.36   -0.77   0.000   0.200   0.000    0.00
   8.850    9.62   11.52   -0.46   0.000   0.200   0.000    0.00
   8.900    9.16    9.80   -0.32   0.000   0.200   0.000    0.00
   8.950    9.27   11.66    0.04   0.000   0.200   0.000    0.00
   9.000    9.45   11.92    0.10   0.000   0.200   0.000    0.00
   9.050    9.50   13.33    0.01   0.000   0.200   0.000    0.00
   9.100    9.21   13.69   -0.54   0.000   0.200   0.000    0.00
   9.150    9.28   13.74   -0.44   0.000   0.200   0.000    0.00
   9.200    9.40   10.89   -0.43   0.000   0.200   0.000    0.00
   9.250    9.29   10.30   -0.58   0.000   0.200   0.000    0.00
   9.300    9.12    8.70   -0.73   0.000   0.200   0.000    0.00
   9.350    9.01    6.03   -0.37   0.000   0.200   0.000    0.00
   9.400    9.15    5.38   -0.39   0.000   0.200   0.000    0.00
   9.450    9.18    5.36   -0.09   0.000   0.200   0.000    0.00
   9.500    9.21    5.05   -0.07   0.000   0.200   0.000    0.00
   9.550    9.10    6.12    0.04   0.000   0.200   0.000    0.00
   9.600    9.14    6.65   -0.08   0.000   0.200   0.000    0.00
   9.650    9.64    8.38   -0.04   0.000   0.200   0.000    0.00
   9.700    9.54    7.93    0.06   0.000   0.200   0.000    0.00
   9.750    9.50    8.96   -0.36   0.000   0.200   0.000    0.00
   9.800    9.34    8.72   -0.76   0.000   0.200   0.000    0.00
   9.850    9.33    9.28   -0.57   0.000   0.200   0.000    0.00
   9.900    9.42    9.69   -0.62   0.000   0.200   0.000    0.00
   9.950    9.04   11.04   -0.74   0.000   0.200   0.000    0.00
  10.000    9.20    9.86   -0.89   0.000   0.200   0.000    0.00
  10.050    8.88    8.63   -0.97   0.000   0.200   0.000    0.00
  10.100    9.33    9.87   -0.70   0.000   0.200   0.000    0.00
  10.150    9.15    9.29   -0.33   0.000   0.200   0.000    0.00
  10.200    8.76    6.29   -0.13   0.000   0.200   0.000    0.00
  10.250    8.82    4.29   -0.06   0.000   0.200   0.000    0.00
  10.300    8.90    6.18   -0.22   0.000   0.200   0.000    0.00
  10.350    8.81    8.85   -0.32   0.000   0.200   0.000    0.00
  10.400    9.16    8.03   -0.06   0.000   0.200   0.000    0.00
  10.450    9.28   10.33    0.17   0.000   0.200   0.000    0.00
  10.500   10.20   11.48    0.32   0.000   0.200   0.000    0.00
  10.550   10.16   10.12    0.36   0.000   0.200   0.000    0.00
  10.600    9.82    7.52    0.21   0.000   0.200   0.000    0.00
  10.650    9.51    7.41    0.37   0.000   0.200   0.000    0.00
  10.700    9.40    9.04    0.35   0.000   0.200   0.000    0.00
  10.750    9.50   10.82    0.04   0.000   0.200   0.000    0.00
  10.800    9.50   10.83    0.22   0.000   0.200   0.000    0.00
  10.850    9.61   10.89    0.38   0.000   0.200   0.000    0.00
  10.900    9.83    9.39    0.24   0.000   0.200   0.000    0.00
  10.950   10.03    8.90    0.04   0.000   0.200   0.000    0.00
  11.000    9.80   10.23   -0.05   0.000   0.200   0.000    0.00
  11.050    9.84    8.95   -0.40   0.000   0.200   0.000    0.00
  11.100   10.03    7.65   -0.12   0.000   0.200   0.000    0.00
  11.150   10.13    7.14   -0.24   0.000   0.200   0.000    0.00
  11.200   10.14    9.21   -0.36   0.000   0.200   0.000    0.00
  11.250   10.28    7.89   -0.28   0.000   0.200   0.000    0.00
  11.300   10.30    9.14    0.01   0.000   0.200   0.000    0.00
  11.350   10.55    8.04   -0.13   0.000   0.200   0.000    0.00
  11.400   10.36    8.63    0.16   0.000   0.200   0.000    0.00
  11.450    9.94    9.82    0.01   0.000   0.200   0.000    0.00
  11.500    9.83    7.71    0.08   0.000   0.200   0.000    0.00
  11.550    9.65    9.32    0.10   0.000   0.200   0.000    0.00
  11.600    9.43    8.20   -0.11   0.000   0.200   0.000    0.00
  11.650    9.33    9.80   -0.18   0.000   0.200   0.000    0.00
  11.700    9.27   11.52   -0.10   0.000   0.200   0.000    0.00
  11.750    9.17   12.26   -0.27   0.000   0.200   0.000    0.00
  11.800    8.92    9.87   -0.67   0.000   0.200   0.000    0.00
  11.850    8.83    7.17   -0.67   0.000   0.200   0.000    0.00
  11.900    9.12    5.51   -0.70   0.000   0.200   0.000    0.00
  11.950    9.25    7.71   -0.33   0.000   0.200   0.000    0.00
  12.000    9.20    9.12   -0.01   0.000   0.200   0.000    0.00
  12.050    8.93    7.35   -0.69   0.000   0.200   0.000    0.00
  12.100    8.77    9.50   -0.72   0.000   0.200   0.000    0.00
  12.150    8.49    9.65   -0.54   0.000   0.200   0.000    0.00
  12.200    8.26   10.76   -0.29   0.000   0.200   0.000    0.00
  12.250    8.21    6.78   -0.24   0.000   0.200   0.000    0.00
  12.300    8.18    7.69   -0.18   0.000   0.200   0.000    0.00
  12.350    8.42    9.28   -0.09   0.000   0.200   0.000    0.00
  12.400    8.55    7.42   -0.05   0.000   0.200   0.000    0.00
  12.450    8.70    7.42    0.14   0.000   0.200   0.000    0.00
  12.500    8.95    6.21   -0.26   0.000   0.200   0.000    0.00
  12.550    9.16    4.79   -0.22   0.000   0.200   0.000    0.00
  12.600    9.34    5.10   -0.38   0.000   0.200   0.000    0.00
  12.650    9.35    3.96   -0.23   0.000   0.200   0.000    0.00
  12.700    9.13    4.00   -0.34   0.000   0.200   0.000    0.00
  12.750    8.79    5.81   -0.14   0.000   0.200   0.000    0.00
  12.800    8.58    7.34   -0.43   0.000   0.200   0.000    0.00
  12.850    8.47    8.43   -0.23   0.000   0.200   0.000    0.00
  12.900    8.39    9.24   -0.15   0.000   0.200   0.000    0.00
  12.950    8.55    9.84   -0.09   0.000   0.200   0.000    0.00
  13.000    8.62   10.85   -0.15   0.000   0.200   0.000    0.00
  13.050    8.43   10.23   -0.24   0.000   0.200   0.000    0.00
  13.100    8.57    7.85   -0.19   0.000   0.200   0.000    0.00
  13.150    8.42    6.20   -0.06   0.000   0.200   0.000    0.00
  13.200    8.12    7.43    0.10   0.000   0.200   0.000    0.00
  13.250    8.16    5.75   -0.03   0.000   0.200   0.000    0.00
  13.300    8.24    6.29    0.16   0.000   0.200   0.000    0.00
  13.350    8.17    4.56    0.36   0.000   0.200   0.000    0.00
  13.400    8.06    3.57    0.49   0.000   0.200   0.000    0.00
  13.450    7.78    5.00    0.78   0.000   0.200   0.000    0.00
  13.500    7.91    3.30    0.40   0.000   0.200   0.000    0.00
  13.550    8.06    1.38    0.23   0.000   0.200   0.000    0.00
  13.600    7.64    2.11    0.67   0.000   0.200   0.000    0.00
  13.650    7.79    1.82    0.68   0.000   0.200   0.000    0.00
  13.700    7.77    0.42    0.59   0.000   0.200   0.000    0.00
  13.750    8.06    0.79    0.28   0.000   0.200   0.000    0.00
  13.800    8.04    1.89    0.08   0.000   0.200   0.000    0.00
  13.850    8.10    3.67    0.15   0.000   0.200   0.000    0.00
  13.900    8.12    2.08   -0.23   0.000   0.200   0.000    0.00
  13.950    8.12    2.43   -0.83   0.000   0.200   0.000    0.00
  14.000    8.28    2.81   -0.83   0.000   0.200   0.000    0.00
  14.050    8.52    2.09   -1.04   0.000   0.200   0.000    0.00
  14.100    8.98    0.41   -0.68   0.000   0.200   0.000    0.00
  14.150    8.94    4.28   -0.21   0.000   0.200   0.000    0.00
  14.200    8.77    4.08   -0.22   0.000   0.200   0.000    0.00
  14.250    8.53    4.82   -0.21   0.000   0.200   0.000    0.00
  14.300    8.36    7.24   -0.06   0.000   0.200   0.000    0.00
  14.350    8.25    4.44   -0.29   0.000   0.200   0.000    0.00
  14.400    8.09    3.95   -0.36   0.000   0.200   0.000    0.00
  14.450    7.83    3.15   -0.23   0.000   0.200   0.000    0.00
  14.500    8.05    4.93    0.10   0.000   0.200   0.000    0.00
  14.550    8.14    5.08   -0.16   0.000   0.200   0.000    0.00
  14.600    8.02    3.99   -0.03   0.000   0.200   0.000    0.00
  14.650    7.83    3.53   -0.22   0.000   0.200   0.000    0.00
  14.700    8.19    3.15   -0.12   0.000   0.200   0.000    0.00
  14.750    8.04    2.10    0.13   0.000   0.200   0.000    0.00
  14.800    8.26    1.16    0.07   0.000   0.200   0.000    0.00
  14.850    8.48    2.76   -0.07   0.000   0.200   0.000    0.00
  14.900    8.29   -0.47    0.09   0.000   0.200   0.000    0.00
  14.950    8.48    1.51    0.06   0.000   0.200   0.000    0.00
  15.000    8.47    2.53    0.07   0.000   0.200   0.000    0.00
  15.050    8.51    1.48   -0.49   0.000   0.200   0.000    0.00
  15.100    8.70    4.13   -0.66   0.000   0.200   0.000    0.00
  15.150    8.71    5.31   -0.68   0.000   0.200   0.000    0.00
  15.200    8.68    5.93   -0.79   0.000   0.200   0.000    0.00
  15.250    8.63    6.52   -1.09   0.000   0.200   0.000    0.00
  15.300    8.86    4.14   -0.77   0.000   0.200   0.000    0.00
  15.350    8.94    2.84   -0.46   0.000   0.200   0.000    0.00
  15.400    8.98    4.64   -0.02   0.000   0.200   0.000    0.00
  15.450    9.16    5.74    0.05   0.000   0.200   0.000    0.00
  15.500    9.42    6.53    0.02   0.000   0.200   0.000    0.00
  15.550    9.45    5.37   -0.17   0.000   0.200   0.000    0.00
  15.600    9.65    3.93   -0.60   0.000   0.200   0.000    0.00
  15.650    9.81    1.82   -0.64   0.000   0.200   0.000    0.00
  15.700    9.05    2.98   -0.80   0.000   0.200   0.000    0.00
  15.750    8.87    2.67   -0.82   0.000   0.200   0.000    0.00
  15.800    8.77   -1.01   -1.08   0.000   0.200   0.000    0.00
  15.850    8.78   -1.08   -1.11   0.000   0.200   0.000    0.00
  15.900    8.87   -2.52   -0.89   0.000   0.200   0.000    0.00
  15.950    8.59   -2.66   -1.15   0.000   0.200   0.000    0.00
  16.000    8.45   -3.73   -1.11   0.000   0.200   0.000    0.00
  16.050    8.50   -1.02   -1.29   0.000   0.200   0.000    0.00
  16.100    8.51   -1.29   -1.62   0.000   0.200   0.000    0.00
  16.150    8.60   -1.23   -1.60   0.000   0.200   0.000    0.00
  16.200    9.00   -2.39   -1.16   0.000   0.200   0.000    0.00
  16.250    9.10   -2.80   -1.09   0.000   0.200   0.000    0.00
  16.300    8.87   -4.20   -1.37   0.000   0.200   0.000    0.00
  16.350    8.95   -2.40   -1.21   0.000   0.200   0.000    0.00
  16.400    9.08   -2.95   -1.14   0.000   0.200   0.000    0.00
  16.450    9.02   -3.37   -0.91   0.000   0.200   0.000    0.00
  16.500    9.35   -1.80   -0.34   0.000   0.200   0.000    0.00
  16.550    9.41   -5.09   -0.16   0.000   0.200   0.000    0.00
  16.600    9.49   -4.87   -0.37   0.000   0.200   0.000    0.00
  16.650    9.36   -4.25   -0.51   0.000   0.200   0.000    0.00
  16.700    9.46   -4.94   -0.53   0.000   0.200   0.000    0.00
  16.750    9.49   -6.31   -0.46   0.000   0.200   0.000    0.00
  16.800    9.39   -6.01   -0.26   0.000   0.200   0.000    0.00
  16.850    9.10   -6.97   -0.40   0.000   0.200   0.000    0.00
  16.900    8.61   -5.23   -0.03   0.000   0.200   0.000    0.00
  16.950    8.20   -5.83    0.19   0.000   0.200   0.000    0.00
  17.000    8.22   -4.75   -0.09   0.000   0.200   0.000    0.00
  17.050    7.78   -4.10   -0.16   0.000   0.200   0.000    0.00
  17.100    7.70   -5.41   -0.07   0.000   0.200   0.000    0.00
  17.150    7.72   -4.19    0.06   0.000   0.200   0.000    0.00
  17.200    7.42   -4.38    0.14   0.000   0.200   0.000    0.00
  17.250    7.25   -2.22   -0.21   0.000   0.200   0.000    0.00
  17.300    7.21   -1.21   -0.47   0.000   0.200   0.000    0.00
  17.350    7.54   -0.56   -0.57   0.000   0.200   0.000    0.00
  17.400    7.88   -0.02   -0.48   0.000   0.200   0.000    0.00
  17.450    7.70    1.87   -0.44   0.000   0.200   0.000    0.00
  17.500    7.76    1.08   -0.58   0.000   0.200   0.000    0.00
  17.550    7.58    5.90   -0.38   0.000   0.200   0.000    0.00
  17.600    7.46    5.88   -0.58   0.000   0.200   0.000    0.00
  17.650    7.60    2.65   -0.68   0.000   0.200   0.000    0.00
  17.700    7.65    3.80   -0.62   0.000   0.200   0.000    0.00
  17.750    7.46    3.63   -0.50   0.000   0.200   0.000    0.00
  17.800    7.52    2.93   -0.30   0.000   0.200   0.000    0.00
  17.850    7.51    3.59    0.07   0.000   0.200   0.000    0.00
  17.900    7.39    3.34   -0.07   0.000   0.200   0.000    0.00
  17.950    7.12   -0.28   -0.28   0.000   0.200   0.000    0.00
  18.000    7.09    1.22   -0.12   0.000   0.200   0.000    0.00
  18.050    7.49    2.34   -0.31   0.000   0.200   0.000    0.00
  18.100    7.39    0.16   -0.26   0.000   0.200   0.000    0.00
  18.150    7.10    0.34   -0.30   0.000   0.200   0.000    0.00
  18.200    7.05   -0.76   -0.46   0.000   0.200   0.000    0.00
  18.250    6.92    0.91   -0.44   0.000   0.200   0.000    0.00
  18.300    7.06   -1.78   -0.12   0.000   0.200   0.000    0.00
  18.350    7.34   -3.80    0.01   0.000   0.200   0.000    0.00
  18.400    7.58   -3.95    0.40   0.000   0.200   0.000    0.00
  18.450    7.86   -3.72    0.36   0.000   0.200   0.000    0.00
  18.500    8.05   -2.13    0.09   0.000   0.200   0.000    0.00
  18.550    8.19    2.14    0.20   0.000   0.200   0.000    0.00
  18.600    7.95    4.21    0.16   0.000   0.200   0.000    0.00
  18.650    8.13    2.02    0.22   0.000   0.200   0.000    0.00
  18.700    7.91   -0.50    0.34   0.000   0.200   0.000    0.00
  18.750    7.88   -1.36    0.64   0.000   0.200   0.000    0.00
  18.800    8.12   -2.89    0.62   0.000   0.200   0.000    0.00
  18.850    8.25   -5.84    0.69   0.000   0.200   0.000    0.00
  18.900    8.00   -6.26    0.59   0.000   0.200   0.000    0.00
  18.950    8.38   -8.79    0.78   0.000   0.200   0.000    0.00
  19.000    8.43   -5.67    0.78   0.000   0.200   0.000    0.00
  19.050    8.90   -6.78    0.77   0.000   0.200   0.000    0.00
  19.100    8.74   -9.69    0.72   0.000   0.200   0.000    0.00
  19.150    8.42  -11.43    0.86   0.000   0.200   0.000    0.00
  19.200    8.43  -11.00    1.13   0.000   0.200   0.000    0.00
  19.250    8.07  -11.20    1.02   0.000   0.200   0.000    0.00
  19.300    8.20  -12.95    1.13   0.000   0.200   0.000    0.00
  19.350    8.02  -12.23    1.13   0.000   0.200   0.000    0.00
  19.400    8.14   -9.41    0.84   0.000   0.200   0.000    0.00
  19.450    8.09   -7.62    0.77   0.000   0.200   0.000    0.00
  19.500    7.97   -8.07    0.42   0.000   0.200   0.000    0.00
  19.550    7.87   -7.89    0.25   0.000   0.200   0.000    0.00
  19.600    7.65   -7.69    0.21   0.000   0.200   0.000    0.00
  19.650    8.01   -7.79    0.48   0.000   0.200   0.000    0.00
  19.700    7.96   -7.67    0.69   0.000   0.200   0.000    0.00
  19.750    8.14   -6.66    1.01   0.000   0.200   0.000    0.00
  19.800    8.22   -6.72    0.85   0.000   0.200   0.000    0.00
  19.850    8.12  -10.28    1.01   0.000   0.200   0.000    0.00
  19.900    7.97   -9.20    1.31   0.000   0.200   0.000    0.00
  19.950    8.11   -6.59    0.91   0.000   0.200   0.000    0.00
  20.000    7.90   -6.02    0.43   0.000   0.200   0.000    0.00
  20.050    7.83   -5.23    0.20   0.000   0.200   0.000    0.00
  20.100    7.53   -5.30    0.16   0.000   0.200   0.000    0.00
  20.150    7.50   -1.96    0.29   0.000   0.200   0.000    0.00
  20.200    7.50    0.52    0.15   0.000   0.200   0.000    0.00
  20.250    7.20    2.50    0.43   0.000   0.200   0.000    0.00
  20.300    6.99    4.15    0.28   0.000   0.200   0.000    0.00
  20.350    6.94    2.23    0.43   0.000   0.200   0.000    0.00
  20.400    7.15    2.34    0.58   0.000   0.200   0.000    0.00
  20.450    7.05    1.97    0.43   0.000   0.200   0.000    0.00
  20.500    7.11    2.08    0.62   0.000   0.200   0.000    0.00
  20.550    6.90    1.62    0.89   0.000   0.200   0.000    0.00
  20.600    6.81    5.57    0.79   0.000   0.200   0.000    0.00
  20.650    6.61    6.30    0.57   0.000   0.200   0.000    0.00
  20.700    6.50    5.56    0.89   0.000   0.200   0.000    0.00
  20.750    6.86    6.96    0.99   0.000   0.200   0.000    0.00
  20.800    6.74    5.65    1.17   0.000   0.200   0.000    0.00
  20.850    6.89    4.90    1.10   0.000   0.200   0.000    0.00
  20.900    7.15    4.36    1.05   0.000   0.200   0.000    0.00
  20.950    6.89    2.47    0.88   0.000   0.200   0.000    0.00
  21.000    6.97    0.22    1.06   0.000   0.200   0.000    0.00
  21.050    6.92   -1.00    1.14   0.000   0.200   0.000    0.00
  21.100    7.37    1.00    1.18   0.000   0.200   0.000    0.00
  21.150    7.32   -0.57    1.51   0.000   0.200   0.000    0.00
  21.200    7.58    0.25    1.65   0.000   0.200   0.000    0.00
  21.250    7.77    1.82    1.71   0.000   0.200   0.000    0.00
  21.300    7.80    4.35    1.60   0.000   0.200   0.000    0.00
  21.350    7.53    6.48    1.49   0.000   0.200   0.000    0.00
  21.400    7.63    7.06    1.53   0.000   0.200   0.000    0.00
  21.450    7.53    7.81    1.38   0.000   0.200   0.000    0.00
  21.500    7.17   12.01    1.53   0.000   0.200   0.000    0.00
  21.550    7.26   13.09    1.43   0.000   0.200   0.000    0.00
  21.600    7.35   12.00    2.14   0.000   0.200   0.000    0.00
  21.650    7.17   11.27    1.96   0.000   0.200   0.000    0.00
  21.700    7.12   10.79    1.89   0.000   0.200   0.000    0.00
  21.750    6.76    7.41    1.76   0.000   0.200   0.000    0.00
  21.800    6.80    2.22    1.69   0.000   0.200   0.000    0.00
  21.850    6.75   -0.95    2.17   0.000   0.200   0.000    0.00
  21.900    6.92   -0.56    2.01   0.000   0.200   0.000    0.00
  21.950    7.00    1.38    2.13   0.000   0.200   0.000    0.00
  22.000    7.00    1.81    1.96   0.000   0.200   0.000    0.00
  22.050    7.16    2.49    1.46   0.000   0.200   0.000    0.00
  22.100    7.08    2.76    1.80   0.000   0.200   0.000    0.00
  22.150    7.01    4.28    1.92   0.000   0.200   0.000    0.00
  22.200    6.89    2.91    1.90   0.000   0.200   0.000    0.00
  22.250    7.03    1.52    1.92   0.000   0.200   0.000    0.00
  22.300    7.07    0.98    1.80   0.000   0.200   0.000    0.00
  22.350    6.84    1.23    1.64   0.000   0.200   0.000    0.00