! This hub-height wind-speed file was generated by TurbSim (v1.06.00, 21-Sep-2012) on 03-Feb-2018 at 23:32:59.
!
! The requested statistics for this data were:
!    Mean Total Wind Speed =   15.000 m/s
!    Turbulence Intensity  =   22.430%
!
!   Time  HorSpd  WndDir  VerSpd  HorShr  VerShr  LnVShr  GstSpd
!  (sec)   (m/s)   (deg)   (m/s)     (-)     (-)     (-)   (m/s)
   0.000   17.66   11.39   -0.59   0.000   0.200   0.000    0.00
   0.050   17.41   14.25    0.54   0.000   0.200   0.000    0.00
   0.100   16.93   11.98    0.86   0.000   0.200   0.000    0.00
   0.150   16.70    9.21    0.06   0.000   0.200   0.000    0.00
   0.200   17.08    7.45   -0.64   0.000   0.200   0.000    0.00
   0.250   16.62    7.00   -1.10   0.000   0.200   0.000    0.00
   0.300   16.14    9.94   -0.29   0.000   0.200   0.000    0.00
   0.350   16.12    8.49   -0.86   0.000   0.200   0.000    0.00
   0.400   15.48    9.10    0.45   0.000   0.200   0.000    0.00
   0.450   14.73    6.10    1.72   0.000   0.200   0.000    0.00
   0.500   15.00    2.24    1.88   0.000   0.200   0.000    0.00
   0.550   14.79    0.31    2.16   0.000   0.200   0.000    0.00
   0.600   14.53    3.04    1.09   0.000   0.200   0.000    0.00
   0.650   15.28    1.76    1.05   0.000   0.200   0.000    0.00
   0.700   15.82    3.84    1.57   0.000   0.200   0.000    0.00
   0.750   15.74    2.34    1.54   0.000   0.200   0.000    0.00
   0.800   15.68    0.46    0.65   0.000   0.200   0.000    0.00
   0.850   15.90    1.06    0.96   0.000   0.200   0.000    0.00
   0.900   15.94    1.54    0.49   0.000   0.200   0.000    0.00
   0.950   15.13    1.40    0.30   0.000   0.200   0.000    0.00
   1.000   16.02    6.49   -0.29   0.000   0.200   0.000    0.00
   1.050   16.51    9.05   -0.97   0.000   0.200   0.000    0.00
   1.100   15.90    6.59   -0.86   0.000   0.200   0.000    0.00
   1.150   15.27   10.00   -0.06   0.000   0.200   0.000    0.00
   1.200   15.79   11.43   -0.84   0.000   0.200   0.000    0.00
   1.250   16.09    9.84   -1.25   0.000   0.200   0.000    0.00
   1.300   15.88    6.00   -0.51   0.000   0.200   0.000    0.00
   1.350   15.34    8.75    0.23   0.000   0.200   0.000    0.00
   1.400   15.42    4.06    0.43   0.000   0.200   0.000    0.00
   1.450   15.03    4.62    0.74   0.000   0.200   0.000    0.00
   1.500   14.73    6.08   -1.20   0.000   0.200   0.000    0.00
   1.550   15.41    3.75   -0.41   0.000   0.200   0.000    0.00
   1.600   15.51    1.74    1.23   0.000   0.200   0.000    0.00
   1.650   14.59    1.77    0.81   0.000   0.200   0.000    0.00
   1.700   14.94    1.64    0.98   0.000   0.200   0.000    0.00
   1.750   15.14    1.76    0.28   0.000   0.200   0.000    0.00
   1.800   15.17    0.49   -1.19   0.000   0.200   0.000    0.00
   1.850   15.34   -0.16   -0.70   0.000   0.200   0.000    0.00
   1.900   15.30    6.52   -0.12   0.000   0.200   0.000    0.00
   1.950   14.95    4.11   -1.37   0.000   0.200   0.000    0.00
   2.000   14.75    3.02   -2.25   0.000   0.200   0.000    0.00
   2.050   15.14    1.57   -1.60   0.000   0.200   0.000    0.00
   2.100   15.74    0.80   -2.85   0.000   0.200   0.000    0.00
   2.150   16.33    3.04   -1.77   0.000   0.200   0.000    0.00
   2.200   16.89    1.45   -1.45   0.000   0.200   0.000    0.00
   2.250   17.37    3.35   -1.31   0.000   0.200   0.000    0.00
   2.300   17.23   -0.02   -1.66   0.000   0.200   0.000    0.00
   2.350   17.58    0.88   -1.79   0.000   0.200   0.000    0.00
   2.400   17.35    3.92    0.62   0.000   0.200   0.000    0.00
   2.450   17.39    2.72    0.75   0.000   0.200   0.000    0.00
   2.500   18.58    3.88   -0.07   0.000   0.200   0.000    0.00
   2.550   17.86    4.92    0.41   0.000   0.200   0.000    0.00
   2.600   16.94    2.85   -0.34   0.000   0.200   0.000    0.00
   2.650   17.46    2.90   -1.22   0.000   0.200   0.000    0.00
   2.700   17.97    6.47   -0.74   0.000   0.200   0.000    0.00
   2.750   18.63    5.91   -1.10   0.000   0.200   0.000    0.00
   2.800   18.47    4.43   -0.62   0.000   0.200   0.000    0.00
   2.850   18.43    3.11   -0.94   0.000   0.200   0.000    0.00
   2.900   18.56   -3.04   -0.34   0.000   0.200   0.000    0.00
   2.950   18.39   -1.78   -1.48   0.000   0.200   0.000    0.00
   3.000   18.65   -3.01   -1.23   0.000   0.200   0.000    0.00
   3.050   18.73   -3.69   -0.28   0.000   0.200   0.000    0.00
   3.100   18.51   -3.33    0.47   0.000   0.200   0.000    0.00
   3.150   18.52   -0.65    0.98   0.000   0.200   0.000    0.00
   3.200   19.16    0.32    0.53   0.000   0.200   0.000    0.00
   3.250   18.34    2.39   -0.81   0.000   0.200   0.000    0.00
   3.300   17.94    1.51   -0.51   0.000   0.200   0.000    0.00
   3.350   17.70   -3.04   -1.32   0.000   0.200   0.000    0.00
   3.400   17.80    2.92   -1.83   0.000   0.200   0.000    0.00
   3.450   17.52    5.00   -1.61   0.000   0.200   0.000    0.00
   3.500   18.74    8.70   -1.64   0.000   0.200   0.000    0.00
   3.550   18.11    7.57   -1.52   0.000   0.200   0.000    0.00
   3.600   18.63    6.29   -1.12   0.000   0.200   0.000    0.00
   3.650   19.64    4.58   -0.12   0.000   0.200   0.000    0.00
   3.700   19.46    4.22   -0.28   0.000   0.200   0.000    0.00
   3.750   18.62    4.20   -1.14   0.000   0.200   0.000    0.00
   3.800   18.35    5.93   -1.16   0.000   0.200   0.000    0.00
   3.850   17.39    6.35   -0.86   0.000   0.200   0.000    0.00
   3.900   17.94    5.22    0.30   0.000   0.200   0.000    0.00
   3.950   18.28    6.19    0.63   0.000   0.200   0.000    0.00
   4.000   19.09    7.11    0.31   0.000   0.200   0.000    0.00
   4.050   19.70    6.15    1.02   0.000   0.200   0.000    0.00
   4.100   18.87    6.09    1.86   0.000   0.200   0.000    0.00
   4.150   18.62    3.15    0.12   0.000   0.200   0.000    0.00
   4.200   18.15    4.08   -0.50   0.000   0.200   0.000    0.00
   4.250   18.27    3.15    0.19   0.000   0.200   0.000    0.00
   4.300   17.97    4.98    0.33   0.000   0.200   0.000    0.00
   4.350   17.63    3.99    0.31   0.000   0.200   0.000    0.00
   4.400   17.26    7.61    0.23   0.000   0.200   0.000    0.00
   4.450   17.78    4.34    0.46   0.000   0.200   0.000    0.00
   4.500   18.09    5.79   -0.42   0.000   0.200   0.000    0.00
   4.550   19.06    3.96   -0.78   0.000   0.200   0.000    0.00
   4.600   18.48    3.60    0.63   0.000   0.200   0.000    0.00
   4.650   18.05    4.20    0.20   0.000   0.200   0.000    0.00
   4.700   17.79    7.79    0.45   0.000   0.200   0.000    0.00
   4.750   18.30    9.22    0.26   0.000   0.200   0.000    0.00
   4.800   18.14    5.83    0.55   0.000   0.200   0.000    0.00
   4.850   17.54    9.30    1.08   0.000   0.200   0.000    0.00
   4.900   17.63   12.04    1.36   0.000   0.200   0.000    0.00
   4.950   18.07   13.25    1.72   0.000   0.200   0.000    0.00
   5.000   18.52   13.98    1.00   0.000   0.200   0.000    0.00
   5.050   18.94   11.66    0.26   0.000   0.200   0.000    0.00
   5.100   19.21    9.44   -0.18   0.000   0.200   0.000    0.00
   5.150   19.21    7.97   -0.12   0.000   0.200   0.000    0.00
   5.200   20.15    7.02   -0.51   0.000   0.200   0.000    0.00
   5.250   18.34    6.34   -0.05   0.000   0.200   0.000    0.00
   5.300   18.19    7.32   -0.23   0.000   0.200   0.000    0.00
   5.350   17.70    6.86   -0.11   0.000   0.200   0.000    0.00
   5.400   18.46    7.08   -0.32   0.000   0.200   0.000    0.00
   5.450   19.42    9.66   -0.53   0.000   0.200   0.000    0.00
   5.500   19.89    7.64   -0.16   0.000   0.200   0.000    0.00
   5.550   20.10    6.88    0.73   0.000   0.200   0.000    0.00
   5.600   20.06    8.11   -0.05   0.000   0.200   0.000    0.00
   5.650   19.64    7.06   -0.79   0.000   0.200   0.000    0.00
   5.700   19.40    8.25   -1.34   0.000   0.200   0.000    0.00
   5.750   19.33    5.33   -1.53   0.000   0.200   0.000    0.00
   5.800   18.92    2.14   -0.56   0.000   0.200   0.000    0.00
   5.850   19.35    2.91   -0.35   0.000   0.200   0.000    0.00
   5.900   19.41    1.64    0.43   0.000   0.200   0.000    0.00
   5.950   20.31    5.18   -0.66   0.000   0.200   0.000    0.00
   6.000   20.68    3.67   -0.86   0.000   0.200   0.000    0.00
   6.050   20.44   -0.69   -0.04   0.000   0.200   0.000    0.00
   6.100   20.31   -0.09    0.00   0.000   0.200   0.000    0.00
   6.150   20.17    0.69   -0.41   0.000   0.200   0.000    0.00
   6.200   20.55    1.43   -0.12   0.000   0.200   0.000    0.00
   6.250   20.79    4.75   -0.94   0.000   0.200   0.000    0.00
   6.300   19.82    5.60   -0.11   0.000   0.200   0.000    0.00
   6.350   19.31    5.92    0.31   0.000   0.200   0.000    0.00
   6.400   19.56    1.51    0.43   0.000   0.200   0.000    0.00
   6.450   19.67    0.95    1.14   0.000   0.200   0.000    0.00
   6.500   20.58    0.22   -0.45   0.000   0.200   0.000    0.00
   6.550   20.65    3.96    0.62   0.000   0.200   0.000    0.00
   6.600   20.87    3.12    1.10   0.000   0.200   0.000    0.00
   6.650   21.65    2.01    1.16   0.000   0.200   0.000    0.00
   6.700   22.15    4.36   -0.10   0.000   0.200   0.000    0.00
   6.750   21.23    4.22    0.35   0.000   0.200   0.000    0.00
   6.800   21.81    5.85   -0.52   0.000   0.200   0.000    0.00
   6.850   21.88    4.74   -0.67   0.000   0.200   0.000    0.00
   6.900   20.40    3.83   -0.23   0.000   0.200   0.000    0.00
   6.950   20.42    6.28   -0.54   0.000   0.200   0.000    0.00
   7.000   20.67    4.28   -0.25   0.000   0.200   0.000    0.00
   7.050   21.02    5.54   -0.42   0.000   0.200   0.000    0.00
   7.100   20.90    5.40    0.21   0.000   0.200   0.000    0.00
   7.150   20.36    6.85    0.23   0.000   0.200   0.000    0.00
   7.200   19.98    7.15   -0.04   0.000   0.200   0.000    0.00
   7.250   21.31    8.18    0.56   0.000   0.200   0.000    0.00
   7.300   21.94   13.59    1.09   0.000   0.200   0.000    0.00
   7.350   22.10   11.75    1.29   0.000   0.200   0.000    0.00
   7.400   22.27   11.37    0.60   0.000   0.200   0.000    0.00
   7.450   21.89   12.49    1.89   0.000   0.200   0.000    0.00
   7.500   21.98   12.25    1.35   0.000   0.200   0.000    0.00
   7.550   21.16   15.30    0.06   0.000   0.200   0.000    0.00
   7.600   21.40   13.21    0.32   0.000   0.200   0.000    0.00
   7.650   21.30   10.24    0.67   0.000   0.200   0.000    0.00
   7.700   20.54    9.36    0.89   0.000   0.200   0.000    0.00
   7.750   19.89    9.73    1.43   0.000   0.200   0.000    0.00
   7.800   19.31   11.96    2.01   0.000   0.200   0.000    0.00
   7.850   19.43    8.98    1.60   0.000   0.200   0.000    0.00
   7.900   19.53    6.22    0.74   0.000   0.200   0.000    0.00
   7.950   18.91    6.39   -0.17   0.000   0.200   0.000    0.00
   8.000   19.11    4.73    0.22   0.000   0.200   0.000    0.00
   8.050   19.12    6.08    1.16   0.000   0.200   0.000    0.00
   8.100   18.89    1.02    0.53   0.000   0.200   0.000    0.00
   8.150   18.23   -1.37   -0.71   0.000   0.200   0.000    0.00
   8.200   18.21   -1.16   -0.94   0.000   0.200   0.000    0.00
   8.250   18.07   -3.06   -0.87   0.000   0.200   0.000    0.00
   8.300   18.03   -6.62    1.08   0.000   0.200   0.000    0.00
   8.350   17.45   -8.31    0.75   0.000   0.200   0.000    0.00
   8.400   17.76   -9.03   -1.01   0.000   0.200   0.000    0.00
   8.450   17.88   -9.30   -2.15   0.000   0.200   0.000    0.00
   8.500   18.41   -9.14   -2.19   0.000   0.200   0.000    0.00
   8.550   18.90  -11.41   -0.76   0.000   0.200   0.000    0.00
   8.600   19.26   -7.99   -0.41   0.000   0.200   0.000    0.00
   8.650   19.41   -8.43   -0.97   0.000   0.200   0.000    0.00
   8.700   18.22   -9.03   -1.29   0.000   0.200   0.000    0.00
   8.750   18.47   -8.13   -1.09   0.000   0.200   0.000    0.00
   8.800   18.85   -7.79    0.30   0.000   0.200   0.000    0.00
   8.850   18.24   -6.29    0.30   0.000   0.200   0.000    0.00
   8.900   18.95   -7.07    0.93   0.000   0.200   0.000    0.00
   8.950   18.38   -4.70    1.82   0.000   0.200   0.000    0.00
   9.000   19.05   -5.66    1.26   0.000   0.200   0.000    0.00
   9.050   19.24   -6.42    0.95   0.000   0.200   0.000    0.00
   9.100   19.30   -3.30    1.11   0.000   0.200   0.000    0.00
   9.150   18.24   -7.17   -0.19   0.000   0.200   0.000    0.00
   9.200   18.08   -6.41    0.36   0.000   0.200   0.000    0.00
   9.250   18.48   -6.28    0.45   0.000   0.200   0.000    0.00
   9.300   18.55   -2.94    2.20   0.000   0.200   0.000    0.00
   9.350   19.91   -3.38    1.90   0.000   0.200   0.000    0.00
   9.400   19.10   -3.70    1.01   0.000   0.200   0.000    0.00
   9.450   18.81    0.04    1.40   0.000   0.200   0.000    0.00
   9.500   19.28   -1.91    1.11   0.000   0.200   0.000    0.00
   9.550   19.18   -2.71    1.38   0.000   0.200   0.000    0.00
   9.600   18.73    0.87    0.76   0.000   0.200   0.000    0.00
   9.650   18.80   -1.39    0.54   0.000   0.200   0.000    0.00
   9.700   18.19   -5.22    0.51   0.000   0.200   0.000    0.00
   9.750   18.72   -3.74   -0.29   0.000   0.200   0.000    0.00
   9.800   19.67   -2.12   -0.61   0.000   0.200   0.000    0.00
   9.850   19.99   -1.16   -1.03   0.000   0.200   0.000    0.00
   9.900   19.80   -3.03   -0.95   0.000   0.200   0.000    0.00
   9.950   18.74   -1.24    0.32   0.000   0.200   0.000    0.00
  10.000   18.96    1.02    0.18   0.000   0.200   0.000    0.00
  10.050   19.10   -1.13    0.31   0.000   0.200   0.000    0.00
  10.100   18.52   -5.60   -0.20   0.000   0.200   0.000    0.00
  10.150   18.55   -1.10    0.11   0.000   0.200   0.000    0.00
  10.200   18.09   -1.50   -0.17   0.000   0.200   0.000    0.00
  10.250   17.37   -0.09    0.30   0.000   0.200   0.000    0.00
  10.300   17.54    1.41    0.88   0.000   0.200   0.000    0.00
  10.350   17.37    4.26   -0.12   0.000   0.200   0.000    0.00
  10.400   17.41    4.10   -0.69   0.000   0.200   0.000    0.00
  10.450   17.48    2.50   -0.66   0.000   0.200   0.000    0.00
  10.500   17.87   -0.49   -0.33   0.000   0.200   0.000    0.00
  10.550   18.52   -3.33    0.40   0.000   0.200   0.000    0.00
  10.600   18.32   -2.97    0.48   0.000   0.200   0.000    0.00
  10.650   18.90   -2.27    1.20   0.000   0.200   0.000    0.00
  10.700   19.13    1.46    0.96   0.000   0.200   0.000    0.00
  10.750   19.00    1.75    0.21   0.000   0.200   0.000    0.00
  10.800   18.99    1.04    0.32   0.000   0.200   0.000    0.00
  10.850   18.81    3.48    0.23   0.000   0.200   0.000    0.00
  10.900   18.83    5.11   -0.58   0.000   0.200   0.000    0.00
  10.950   19.01    2.97   -1.69   0.000   0.200   0.000    0.00
  11.000   18.99    5.91   -0.61   0.000   0.200   0.000    0.00
  11.050   18.96    6.29   -1.46   0.000   0.200   0.000    0.00
  11.100   18.39    5.15   -0.97   0.000   0.200   0.000    0.00
  11.150   17.69    6.32   -1.45   0.000   0.200   0.000    0.00
  11.200   17.88    6.54   -1.41   0.000   0.200   0.000    0.00
  11.250   18.76    5.99   -1.47   0.000   0.200   0.000    0.00
  11.300   18.34    6.99   -1.10   0.000   0.200   0.000    0.00
  11.350   19.26    8.38   -0.81   0.000   0.200   0.000    0.00
  11.400   19.17    7.75   -1.09   0.000   0.200   0.000    0.00
  11.450   19.22    7.17   -1.64   0.000   0.200   0.000    0.00
  11.500   18.27    3.26   -1.92   0.000   0.200   0.000    0.00
  11.550   17.50    6.20   -2.03   0.000   0.200   0.000    0.00
  11.600   16.64    4.07   -1.54   0.000   0.200   0.000    0.00
  11.650   16.21   -0.32   -1.19   0.000   0.200   0.000    0.00
  11.700   16.67   -1.61   -2.32   0.000   0.200   0.000    0.00
  11.750   17.10   -1.12   -3.27   0.000   0.200   0.000    0.00
  11.800   17.72    0.83   -2.87   0.000   0.200   0.000    0.00
  11.850   16.87   -1.04   -2.21   0.000   0.200   0.000    0.00
  11.900   17.45   -1.47   -1.66   0.000   0.200   0.000    0.00
  11.950   16.22    0.93   -1.95   0.000   0.200   0.000    0.00
  12.000   16.56    4.02   -2.15   0.000   0.200   0.000    0.00
  12.050   17.95    3.88   -2.55   0.000   0.200   0.000    0.00
  12.100   17.75    5.06   -3.61   0.000   0.200   0.000    0.00
  12.150   18.20    5.89   -3.85   0.000   0.200   0.000    0.00
  12.200   18.57    6.84   -2.70   0.000   0.200   0.000    0.00
  12.250   18.60    6.55   -4.30   0.000   0.200   0.000    0.00
  12.300   18.48    7.54   -4.33   0.000   0.200   0.000    0.00
  12.350   19.91    8.45   -5.09   0.000   0.200   0.000    0.00
  12.400   19.62    6.31   -3.95   0.000   0.200   0.000    0.00
  12.450   18.60    5.96   -4.36   0.000   0.200   0.000    0.00
  12.500   19.22    4.78   -3.68   0.000   0.200   0.000    0.00
  12.550   18.33    2.23   -3.83   0.000   0.200   0.000    0.00
  12.600   17.73   -1.38   -2.58   0.000   0.200   0.000    0.00
  12.650   17.61   -2.29   -1.35   0.000   0.200   0.000    0.00
  12.700   17.79   -1.33   -0.85   0.000   0.200   0.000    0.00
  12.750   17.73   -1.51   -0.79   0.000   0.200   0.000    0.00
  12.800   16.94   -3.69   -0.90   0.000   0.200   0.000    0.00
  12.850   17.54   -3.51    0.47   0.000   0.200   0.000    0.00
  12.900   17.08   -0.28   -0.05   0.000   0.200   0.000    0.00
  12.950   16.29    0.47   -0.83   0.000   0.200   0.000    0.00
  13.000   16.03    2.10   -1.76   0.000   0.200   0.000    0.00
  13.050   15.69    3.20   -0.71   0.000   0.200   0.000    0.00
  13.100   16.07    1.25   -0.60   0.000   0.200   0.000    0.00
  13.150   15.72   -1.22   -1.21   0.000   0.200   0.000    0.00
  13.200   15.93   -1.34   -1.33   0.000   0.200   0.000    0.00
  13.250   15.10    0.89   -2.27   0.000   0.200   0.000    0.00
  13.300   15.44    3.73   -1.98   0.000   0.200   0.000    0.00
  13.350   16.13    5.12   -1.52   0.000   0.200   0.000    0.00
  13.400   17.47    8.15   -1.07   0.000   0.200   0.000    0.00
  13.450   17.47    7.11   -0.86   0.000   0.200   0.000    0.00
  13.500   17.14    4.26   -1.24   0.000   0.200   0.000    0.00
  13.550   17.33    6.20   -0.34   0.000   0.200   0.000    0.00
  13.600   16.28    7.40   -0.11   0.000   0.200   0.000    0.00
  13.650   15.71    5.34   -0.38   0.000   0.200   0.000    0.00
  13.700   16.21    2.66   -1.61   0.000   0.200   0.000    0.00
  13.750   17.20    1.21   -1.90   0.000   0.200   0.000    0.00
  13.800   16.89   -2.80   -1.12   0.000   0.200   0.000    0.00
  13.850   17.83   -3.81   -2.11   0.000   0.200   0.000    0.00
  13.900   17.54   -3.15   -1.92   0.000   0.200   0.000    0.00
  13.950   17.07   -2.04   -2.29   0.000   0.200   0.000    0.00
  14.000   17.45    1.30   -0.97   0.000   0.200   0.000    0.00
  14.050   16.70    0.07   -0.62   0.000   0.200   0.000    0.00
  14.100   16.52   -2.21   -0.23   0.000   0.200   0.000    0.00
  14.150   16.49   -0.09   -0.47   0.000   0.200   0.000    0.00
  14.200   16.38   -3.03    0.84   0.000   0.200   0.000    0.00
  14.250   16.80   -1.39    1.03   0.000   0.200   0.000    0.00
  14.300   17.70    2.31    0.37   0.000   0.200   0.000    0.00
  14.350   16.93    4.34    0.59   0.000   0.200   0.000    0.00
  14.400   17.13    2.83    0.80   0.000   0.200   0.000    0.00
  14.450   16.72    6.51    0.67   0.000   0.200   0.000    0.00
  14.500   16.97   10.40   -0.08   0.000   0.200   0.000    0.00
  14.550   17.24    9.38   -0.20   0.000   0.200   0.000    0.00
  14.600   16.59   11.27   -0.02   0.000   0.200   0.000    0.00
  14.650   15.87   10.06    0.09   0.000   0.200   0.000    0.00
  14.700   16.21    7.42   -0.38   0.000   0.200   0.000    0.00
  14.750   15.96    9.28   -1.13   0.000   0.200   0.000    0.00
  14.800   16.23   11.32   -0.80   0.000   0.200   0.000    0.00
  14.850   15.77   10.71    0.97   0.000   0.200   0.000    0.00
  14.900   14.72    9.64    1.52   0.000   0.200   0.000    0.00
  14.950   15.64   11.64    1.72   0.000   0.200   0.000    0.00
  15.000   14.97   12.27    2.20   0.000   0.200   0.000    0.00
  15.050   14.52   11.58    3.07   0.000   0.200   0.000    0.00
  15.100   13.76   10.53    3.30   0.000   0.200   0.000    0.00
  15.150   14.58   11.84    1.84   0.000   0.200   0.000    0.00
  15.200   14.66   13.35    1.08   0.000   0.200   0.000    0.00
  15.250   13.91   13.63    0.25   0.000   0.200   0.000    0.00
  15.300   14.68   10.04    0.07   0.000   0.200   0.000    0.00
  15.350   14.37   10.69    0.95   0.000   0.200   0.000    0.00
  15.400   13.52    5.82    1.30   0.000   0.200   0.000    0.00
  15.450   12.80    6.94    2.27   0.000   0.200   0.000    0.00
  15.500   12.52   14.32    2.22   0.000   0.200   0.000    0.00
  15.550   13.27   12.96    2.91   0.000   0.200   0.000    0.00
  15.600   13.32   10.15    3.44   0.000   0.200   0.000    0.00
  15.650   13.17    7.37    3.78   0.000   0.200   0.000    0.00
  15.700   13.56    8.76    4.17   0.000   0.200   0.000    0.00
  15.750   13.86    5.80    3.61   0.000   0.200   0.000    0.00
  15.800   13.53    3.83    3.71   0.000   0.200   0.000    0.00
  15.850   13.30    2.57    3.64   0.000   0.200   0.000    0.00
  15.900   13.75    3.20    3.36   0.000   0.200   0.000    0.00
  15.950   13.69    6.04    3.87   0.000   0.200   0.000    0.00
  16.000   14.63    3.53    3.89   0.000   0.200   0.000    0.00
  16.050   14.63    5.48    4.03   0.000   0.200   0.000    0.00
  16.100   15.19    7.29    4.21   0.000   0.200   0.000    0.00
  16.150   15.86    8.56    4.23   0.000   0.200   0.000    0.00
  16.200   16.16    7.53    3.33   0.000   0.200   0.000    0.00
  16.250   16.80   11.93    2.27   0.000   0.200   0.000    0.00
  16.300   16.67    9.83    2.66   0.000   0.200   0.000    0.00
  16.350   17.36    9.66    3.02   0.000   0.200   0.000    0.00
  16.400   16.44   12.23    3.87   0.000   0.200   0.000    0.00
  16.450   16.86   15.43    3.70   0.000   0.200   0.000    0.00
  16.500   17.36   16.61    3.24   0.000   0.200   0.000    0.00
  16.550   16.49   15.03    2.67   0.000   0.200   0.000    0.00
  16.600   16.48   13.88    1.97   0.000   0.200   0.000    0.00
  16.650   16.56   15.09    1.75   0.000   0.200   0.000    0.00
  16.700   16.94   13.25    1.41   0.000   0.200   0.000    0.00
  16.750   16.92   12.26    1.80   0.000   0.200   0.000    0.00
  16.800   16.77   12.11    1.64   0.000   0.200   0.000    0.00
  16.850   16.43   13.81    0.95   0.000   0.200   0.000    0.00
  16.900   16.10   13.06    1.41   0.000   0.200   0.000    0.00
  16.950   16.24    8.01    1.36   0.000   0.200   0.000    0.00
  17.000   16.25    5.76    0.99   0.000   0.200   0.000    0.00
  17.050   15.57    2.88    1.27   0.000   0.200   0.000    0.00
  17.100   15.08    0.66   -0.52   0.000   0.200   0.000    0.00
  17.150   14.64   -2.17   -0.61   0.000   0.200   0.000    0.00
  17.200   15.22    0.35    0.89   0.000   0.200   0.000    0.00
  17.250   15.11    3.35    0.69   0.000   0.200   0.000    0.00
  17.300   15.44    2.29    1.33   0.000   0.200   0.000    0.00
  17.350   15.76    2.22    1.51   0.000   0.200   0.000    0.00
  17.400   15.84   -0.25    2.36   0.000   0.200   0.000    0.00
  17.450   16.19   -1.16    2.44   0.000   0.200   0.000    0.00
  17.500   16.44    1.51    1.52   0.000   0.200   0.000    0.00
  17.550   17.12    2.75    1.09   0.000   0.200   0.000    0.00
  17.600   16.81    5.31    0.86   0.000   0.200   0.000    0.00
  17.650   16.20    4.56    1.38   0.000   0.200   0.000    0.00
  17.700   16.25   -0.51    2.45   0.000   0.200   0.000    0.00
  17.750   16.21   -0.20    2.61   0.000   0.200   0.000    0.00
  17.800   16.66    0.72    2.74   0.000   0.200   0.000    0.00
  17.850   16.54    4.36    2.18   0.000   0.200   0.000    0.00
  17.900   16.97    2.21    2.86   0.000   0.200   0.000    0.00
  17.950   17.09    0.40    1.78   0.000   0.200   0.000    0.00
  18.000   16.14    3.62    0.99   0.000   0.200   0.000    0.00
  18.050   17.10    8.01    1.09   0.000   0.200   0.000    0.00
  18.100   17.88    8.26    0.19   0.000   0.200   0.000    0.00
  18.150   17.90    8.60   -0.01   0.000   0.200   0.000    0.00
  18.200   17.18    8.28    0.13   0.000   0.200   0.000    0.00
  18.250   16.68    5.26    0.13   0.000   0.200   0.000    0.00
  18.300   17.60    3.11   -0.38   0.000   0.200   0.000    0.00
  18.350   18.22   -1.65   -0.44   0.000   0.200   0.000    0.00
  18.400   17.73   -2.12    0.08   0.000   0.200   0.000    0.00
  18.450   16.86   -1.30   -0.08   0.000   0.200   0.000    0.00
  18.500   16.81   -2.23   -0.85   0.000   0.200   0.000    0.00
  18.550   17.19   -1.33   -2.23   0.000   0.200   0.000    0.00
  18.600   17.24   -3.42   -1.14   0.000   0.200   0.000    0.00
  18.650   17.21   -0.70   -0.26   0.000   0.200   0.000    0.00
  18.700   17.02    0.53   -0.13   0.000   0.200   0.000    0.00
  18.750   17.43   -1.43   -0.30   0.000   0.200   0.000    0.00
  18.800   16.91    0.43   -0.58   0.000   0.200   0.000    0.00
  18.850   17.27    0.50   -0.40   0.000   0.200   0.000    0.00
  18.900   17.57    0.42    0.34   0.000   0.200   0.000    0.00
  18.950   17.97    1.23    0.16   0.000   0.200   0.000    0.00
  19.000   18.02   -0.78    0.04   0.000   0.200   0.000    0.00
  19.050   17.79   -3.50    0.15   0.000   0.200   0.000    0.00
  19.100   17.37   -0.22    0.23   0.000   0.200   0.000    0.00
  19.150   18.01    0.23    0.13   0.000   0.200   0.000    0.00
  19.200   18.17    0.69    1.03   0.000   0.200   0.000    0.00
  19.250   18.13   -2.46    1.15   0.000   0.200   0.000    0.00
  19.300   17.76    0.31    1.82   0.000   0.200   0.000    0.00
  19.350   18.26    4.52    1.47   0.000   0.200   0.000    0.00
  19.400   17.88    2.84    0.64   0.000   0.200   0.000    0.00
  19.450   18.36    7.28    0.25   0.000   0.200   0.000    0.00
  19.500   17.24    5.46    0.28   0.000   0.200   0.000    0.00
  19.550   16.28   -1.06    1.03   0.000   0.200   0.000    0.00
  19.600   16.78    0.32    0.08   0.000   0.200   0.000    0.00
  19.650   16.70    2.85   -0.40   0.000   0.200   0.000    0.00
  19.700   16.25    0.55   -0.03   0.000   0.200   0.000    0.00
  19.750   16.02    1.55   -0.41   0.000   0.200   0.000    0.00
  19.800   15.99    0.40   -1.04   0.000   0.200   0.000    0.00
  19.850   16.41   -3.13   -0.56   0.000   0.200   0.000    0.00
  19.900   16.66   -3.20   -0.42   0.000   0.200   0.000    0.00
  19.950   16.88   -2.39    1.05   0.000   0.200   0.000    0.00
  20.000   17.20   -7.73    1.07   0.000   0.200   0.000    0.00
  20.050   16.86   -7.55    1.29   0.000   0.200   0.000    0.00
  20.100   17.67   -4.56    2.03   0.000   0.200   0.000    0.00
  20.150   17.55   -4.00    2.74   0.000   0.200   0.000    0.00
  20.200   16.91   -0.29    1.81   0.000   0.200   0.000    0.00
  20.250   17.44    0.93    0.18   0.000   0.200   0.000    0.00
  20.300   16.99   -2.87   -1.00   0.000   0.200   0.000    0.00
  20.350   16.80   -2.14   -1.47   0.000   0.200   0.000    0.00
  20.400   16.87   -0.13   -1.17   0.000   0.200   0.000    0.00
  20.450   16.85    3.23   -0.52   0.000   0.200   0.000    0.00
  20.500   16.72    1.93   -1.45   0.000   0.200   0.000    0.00
  20.550   15.75    0.66   -1.38   0.000   0.200   0.000    0.00
  20.600   15.50   -0.59   -0.87   0.000   0.200   0.000    0.00
  20.650   15.34   -0.67   -1.25   0.000   0.200   0.000    0.00
  20.700   15.74   -4.22    0.84   0.000   0.200   0.000    0.00
  20.750   16.48   -6.20    0.52   0.000   0.200   0.000    0.00
  20.800   16.28   -5.58    0.39   0.000   0.200   0.000    0.00
  20.850   16.43   -9.49   -0.27   0.000   0.200   0.000    0.00
  20.900   15.56   -6.50   -0.64   0.000   0.200   0.000    0.00
  20.950   16.11   -5.69   -0.57   0.000   0.200   0.000    0.00
  21.000   16.82   -4.16    0.53   0.000   0.200   0.000    0.00
  21.050   16.38   -5.00    0.46   0.000   0.200   0.000    0.00
  21.100   17.32   -2.40    0.15   0.000   0.200   0.000    0.00
  21.150   18.20   -1.35    0.95   0.000   0.200   0.000    0.00
  21.200   18.48   -2.30    1.26   0.000   0.200   0.000    0.00
  21.250   18.17   -2.58    1.67   0.000   0.200   0.000    0.00
  21.300   18.04   -5.94    0.83   0.000   0.200   0.000    0.00
  21.350   18.34   -8.75    1.01   0.000   0.200   0.000    0.00
  21.400   18.52   -8.43    1.67   0.000   0.200   0.000    0.00
  21.450   18.09   -7.40    2.57   0.000   0.200   0.000    0.00
  21.500   17.65   -4.96    2.33   0.000   0.200   0.000    0.00
  21.550   17.47   -6.33    1.62   0.000   0.200   0.000    0.00
  21.600   17.44   -6.23    1.68   0.000   0.200   0.000    0.00
  21.650   17.40   -5.91    1.94   0.000   0.200   0.000    0.00
  21.700   17.70   -2.98    1.87   0.000   0.200   0.000    0.00
  21.750   17.19    1.21    2.74   0.000   0.200   0.000    0.00
  21.800   17.32   -1.15    2.65   0.000   0.200   0.000    0.00
  21.850   17.13   -3.96    2.89   0.000   0.200   0.000    0.00
  21.900   16.56   -2.90    2.57   0.000   0.200   0.000    0.00
  21.950   16.25   -4.79    2.11   0.000   0.200   0.000    0.00
  22.000   16.19   -8.23    2.84   0.000   0.200   0.000    0.00
  22.050   16.73  -10.19    2.79   0.000   0.200   0.000    0.00
  22.100   17.33   -8.59    2.28   0.000   0.200   0.000    0.00
  22.150   16.57   -7.15    2.50   0.000   0.200   0.000    0.00
  22.200   16.45   -6.87    2.12   0.000   0.200   0.000    0.00
  22.250   16.39  -10.19    1.68   0.000   0.200   0.000    0.00
  22.300   17.04  -12.57    1.42   0.000   0.200   0.000    0.00
  22.350   16.06  -11.85    1.40   0.000   0.200   0.000    0.00