! This hub-height wind-speed file was generated by TurbSim (v1.06.00, 21-Sep-2012) on 03-Feb-2018 at 23:31:00.
!
! The requested statistics for this data were:
!    Mean Total Wind Speed =    5.000 m/s
!    Turbulence Intensity  =   51.162%
!
!   Time  HorSpd  WndDir  VerSpd  HorShr  VerShr  LnVShr  GstSpd
!  (sec)   (m/s)   (deg)   (m/s)     (-)     (-)     (-)   (m/s)
   0.000    3.23   50.70   -1.54   0.000   0.200   0.000    0.00
   0.050    2.64   54.12   -1.24   0.000   0.200   0.000    0.00
   0.100    2.38   47.65   -1.79   0.000   0.200   0.000    0.00
   0.150    2.64   47.73   -1.72   0.000   0.200   0.000    0.00
   0.200    2.35   40.32   -1.54   0.000   0.200   0.000    0.00
   0.250    2.33   37.99   -1.24   0.000   0.200   0.000    0.00
   0.300    2.63   31.83   -1.32   0.000   0.200   0.000    0.00
   0.350    2.81   25.44   -0.82   0.000   0.200   0.000    0.00
   0.400    2.83   15.81   -1.42   0.000   0.200   0.000    0.00
   0.450    2.61    7.43   -0.89   0.000   0.200   0.000    0.00
   0.500    2.78   21.20   -0.50   0.000   0.200   0.000    0.00
   0.550    2.51   11.90   -0.07   0.000   0.200   0.000    0.00
   0.600    2.91   12.85   -0.40   0.000   0.200   0.000    0.00
   0.650    2.81    3.35   -0.49   0.000   0.200   0.000    0.00
   0.700    3.01    9.55   -0.98   0.000   0.200   0.000    0.00
   0.750    2.91   15.10   -0.75   0.000   0.200   0.000    0.00
   0.800    2.62   19.57   -0.98   0.000   0.200   0.000    0.00
   0.850    2.89   13.12   -0.69   0.000   0.200   0.000    0.00
   0.900    3.15   10.99   -0.63   0.000   0.200   0.000    0.00
   0.950    3.19   19.04   -1.21   0.000   0.200   0.000    0.00
   1.000    3.26   16.14   -0.99   0.000   0.200   0.000    0.00
   1.050    3.11   21.95   -0.86   0.000   0.200   0.000    0.00
   1.100    3.14   20.98   -0.81   0.000   0.200   0.000    0.00
   1.150    3.69   19.32   -0.79   0.000   0.200   0.000    0.00
   1.200    4.09   11.23   -0.35   0.000   0.200   0.000    0.00
   1.250    3.97    8.51   -0.83   0.000   0.200   0.000    0.00
   1.300    4.16    3.10   -0.72   0.000   0.200   0.000    0.00
   1.350    4.41   -0.07   -1.44   0.000   0.200   0.000    0.00
   1.400    4.40    2.20   -1.14   0.000   0.200   0.000    0.00
   1.450    4.77   -8.84   -0.78   0.000   0.200   0.000    0.00
   1.500    3.97  -14.76   -1.09   0.000   0.200   0.000    0.00
   1.550    3.82  -12.30   -1.32   0.000   0.200   0.000    0.00
   1.600    3.57   -5.07   -1.44   0.000   0.200   0.000    0.00
   1.650    3.76    5.00   -1.01   0.000   0.200   0.000    0.00
   1.700    4.05    9.39   -1.67   0.000   0.200   0.000    0.00
   1.750    4.37    9.98   -1.53   0.000   0.200   0.000    0.00
   1.800    4.25    5.23   -1.30   0.000   0.200   0.000    0.00
   1.850    3.93    0.50   -1.07   0.000   0.200   0.000    0.00
   1.900    3.85   -1.11   -1.45   0.000   0.200   0.000    0.00
   1.950    4.31    4.08   -0.87   0.000   0.200   0.000    0.00
   2.000    4.79    4.19   -0.37   0.000   0.200   0.000    0.00
   2.050    4.62    9.62   -0.12   0.000   0.200   0.000    0.00
   2.100    4.85    5.92    0.03   0.000   0.200   0.000    0.00
   2.150    5.56    1.35   -0.79   0.000   0.200   0.000    0.00
   2.200    5.33   -1.75   -0.94   0.000   0.200   0.000    0.00
   2.250    5.07   -1.88   -0.53   0.000   0.200   0.000    0.00
   2.300    4.60    3.03    0.07   0.000   0.200   0.000    0.00
   2.350    4.23    0.18   -0.61   0.000   0.200   0.000    0.00
   2.400    4.41   -0.99   -0.75   0.000   0.200   0.000    0.00
   2.450    4.29   -2.67   -0.81   0.000   0.200   0.000    0.00
   2.500    3.75   -1.97   -0.76   0.000   0.200   0.000    0.00
   2.550    4.15    4.23   -1.22   0.000   0.200   0.000    0.00
   2.600    4.21   -0.45   -1.56   0.000   0.200   0.000    0.00
   2.650    4.43    3.54   -1.12   0.000   0.200   0.000    0.00
   2.700    4.69   -3.20   -0.85   0.000   0.200   0.000    0.00
   2.750    5.18   -7.04   -1.00   0.000   0.200   0.000    0.00
   2.800    5.74   -3.04   -1.34   0.000   0.200   0.000    0.00
   2.850    5.78   -3.48   -1.09   0.000   0.200   0.000    0.00
   2.900    5.64   -3.27   -1.09   0.000   0.200   0.000    0.00
   2.950    5.12   -2.21   -1.32   0.000   0.200   0.000    0.00
   3.000    4.82   -2.57   -1.38   0.000   0.200   0.000    0.00
   3.050    5.16    3.59   -1.56   0.000   0.200   0.000    0.00
   3.100    5.47    3.89   -1.32   0.000   0.200   0.000    0.00
   3.150    5.34    9.74   -1.87   0.000   0.200   0.000    0.00
   3.200    5.28   -0.47   -2.12   0.000   0.200   0.000    0.00
   3.250    5.88   -2.87   -1.86   0.000   0.200   0.000    0.00
   3.300    6.29   -6.34   -2.23   0.000   0.200   0.000    0.00
   3.350    5.83   -4.51   -1.75   0.000   0.200   0.000    0.00
   3.400    6.16   -5.37   -2.09   0.000   0.200   0.000    0.00
   3.450    6.15   -4.78   -2.28   0.000   0.200   0.000    0.00
   3.500    6.21   -0.62   -2.66   0.000   0.200   0.000    0.00
   3.550    5.53   -4.19   -2.90   0.000   0.200   0.000    0.00
   3.600    5.70   -3.90   -2.61   0.000   0.200   0.000    0.00
   3.650    5.83   -3.03   -1.81   0.000   0.200   0.000    0.00
   3.700    5.87  -16.62   -1.46   0.000   0.200   0.000    0.00
   3.750    5.09  -13.44   -2.01   0.000   0.200   0.000    0.00
   3.800    4.65   -3.95   -2.10   0.000   0.200   0.000    0.00
   3.850    4.81  -11.98   -1.69   0.000   0.200   0.000    0.00
   3.900    5.64  -13.19   -1.85   0.000   0.200   0.000    0.00
   3.950    6.11  -10.26   -1.22   0.000   0.200   0.000    0.00
   4.000    5.70   -5.66   -1.57   0.000   0.200   0.000    0.00
   4.050    5.33  -11.77   -1.18   0.000   0.200   0.000    0.00
   4.100    5.40  -12.41   -1.14   0.000   0.200   0.000    0.00
   4.150    5.48  -13.41   -1.08   0.000   0.200   0.000    0.00
   4.200    5.12   -7.24   -0.54   0.000   0.200   0.000    0.00
   4.250    4.96  -10.66   -0.72   0.000   0.200   0.000    0.00
   4.300    4.54  -12.00   -0.66   0.000   0.200   0.000    0.00
   4.350    4.94  -10.58   -0.76   0.000   0.200   0.000    0.00
   4.400    5.04   -8.48   -0.68   0.000   0.200   0.000    0.00
   4.450    4.99   -2.95   -0.74   0.000   0.200   0.000    0.00
   4.500    4.41   -5.37   -0.85   0.000   0.200   0.000    0.00
   4.550    4.71   -7.76   -0.92   0.000   0.200   0.000    0.00
   4.600    5.62  -10.26   -0.60   0.000   0.200   0.000    0.00
   4.650    5.25   -9.74   -0.60   0.000   0.200   0.000    0.00
   4.700    5.21   -5.22   -0.98   0.000   0.200   0.000    0.00
   4.750    5.46   -4.94   -0.64   0.000   0.200   0.000    0.00
   4.800    5.99  -10.25   -0.46   0.000   0.200   0.000    0.00
   4.850    5.14  -11.13   -0.74   0.000   0.200   0.000    0.00
   4.900    5.46  -16.39   -0.51   0.000   0.200   0.000    0.00
   4.950    4.94  -17.51   -0.21   0.000   0.200   0.000    0.00
   5.000    5.16  -19.87    0.38   0.000   0.200   0.000    0.00
   5.050    5.12  -21.12   -0.29   0.000   0.200   0.000    0.00
   5.100    4.91  -21.13   -0.44   0.000   0.200   0.000    0.00
   5.150    5.05  -17.80   -0.45   0.000   0.200   0.000    0.00
   5.200    5.12  -14.98   -0.08   0.000   0.200   0.000    0.00
   5.250    4.88  -17.44   -0.88   0.000   0.200   0.000    0.00
   5.300    4.80  -17.69   -0.81   0.000   0.200   0.000    0.00
   5.350    4.46  -19.23   -0.57   0.000   0.200   0.000    0.00
   5.400    5.03  -21.57   -0.44   0.000   0.200   0.000    0.00
   5.450    4.85  -21.19   -1.05   0.000   0.200   0.000    0.00
   5.500    4.65  -21.23   -1.06   0.000   0.200   0.000    0.00
   5.550    4.63  -15.76   -1.29   0.000   0.200   0.000    0.00
   5.600    4.61  -14.01   -1.27   0.000   0.200   0.000    0.00
   5.650    4.64  -15.48   -0.79   0.000   0.200   0.000    0.00
   5.700    5.06  -12.32   -0.52   0.000   0.200   0.000    0.00
   5.750    5.42  -12.83   -0.83   0.000   0.200   0.000    0.00
   5.800    5.04   -9.48   -0.64   0.000   0.200   0.000    0.00
   5.850    4.95   -5.95   -0.46   0.000   0.200   0.000    0.00
   5.900    4.72  -19.11   -1.19   0.000   0.200   0.000    0.00
   5.950    4.93  -23.46   -0.79   0.000   0.200   0.000    0.00
   6.000    4.74  -23.31   -0.16   0.000   0.200   0.000    0.00
   6.050    4.27  -25.56   -0.64   0.000   0.200   0.000    0.00
   6.100    4.31  -19.73   -0.72   0.000   0.200   0.000    0.00
   6.150    5.40  -27.30   -1.03   0.000   0.200   0.000    0.00
   6.200    5.74  -26.41   -1.62   0.000   0.200   0.000    0.00
   6.250    6.16  -26.16   -1.44   0.000   0.200   0.000    0.00
   6.300    5.94  -27.51   -0.97   0.000   0.200   0.000    0.00
   6.350    6.01  -21.57   -1.03   0.000   0.200   0.000    0.00
   6.400    6.23  -31.36   -1.60   0.000   0.200   0.000    0.00
   6.450    5.83  -32.11   -1.61   0.000   0.200   0.000    0.00
   6.500    5.91  -25.34   -1.16   0.000   0.200   0.000    0.00
   6.550    5.65  -20.60   -0.19   0.000   0.200   0.000    0.00
   6.600    5.70  -21.96   -0.32   0.000   0.200   0.000    0.00
   6.650    5.96  -28.16   -0.39   0.000   0.200   0.000    0.00
   6.700    5.58  -25.82   -0.65   0.000   0.200   0.000    0.00
   6.750    5.55  -24.43   -0.82   0.000   0.200   0.000    0.00
   6.800    5.49  -26.52   -0.56   0.000   0.200   0.000    0.00
   6.850    5.33  -24.43   -0.10   0.000   0.200   0.000    0.00
   6.900    5.22  -24.55   -0.57   0.000   0.200   0.000    0.00
   6.950    4.76  -23.84   -0.78   0.000   0.200   0.000    0.00
   7.000    5.04  -27.06   -1.05   0.000   0.200   0.000    0.00
   7.050    5.10  -26.58   -1.61   0.000   0.200   0.000    0.00
   7.100    4.70  -28.08   -1.87   0.000   0.200   0.000    0.00
   7.150    4.98  -24.20   -2.35   0.000   0.200   0.000    0.00
   7.200    4.47  -26.44   -2.20   0.000   0.200   0.000    0.00
   7.250    4.78  -32.86   -2.53   0.000   0.200   0.000    0.00
   7.300    4.87  -26.25   -3.15   0.000   0.200   0.000    0.00
   7.350    4.59  -25.12   -2.19   0.000   0.200   0.000    0.00
   7.400    5.46  -24.75   -1.76   0.000   0.200   0.000    0.00
   7.450    5.56  -27.76   -1.46   0.000   0.200   0.000    0.00
   7.500    5.13  -29.77   -1.34   0.000   0.200   0.000    0.00
   7.550    4.73  -29.56   -1.52   0.000   0.200   0.000    0.00
   7.600    5.09  -29.83   -1.50   0.000   0.200   0.000    0.00
   7.650    5.62  -37.87   -0.80   0.000   0.200   0.000    0.00
   7.700    6.13  -36.00   -0.97   0.000   0.200   0.000    0.00
   7.750    6.27  -31.01   -0.92   0.000   0.200   0.000    0.00
   7.800    5.96  -33.04   -1.16   0.000   0.200   0.000    0.00
   7.850    5.69  -35.26   -1.41   0.000   0.200   0.000    0.00
   7.900    5.68  -37.50   -1.46   0.000   0.200   0.000    0.00
   7.950    6.13  -36.97   -0.87   0.000   0.200   0.000    0.00
   8.000    6.05  -38.90   -0.36   0.000   0.200   0.000    0.00
   8.050    5.97  -39.38    0.12   0.000   0.200   0.000    0.00
   8.100    6.05  -38.37    0.21   0.000   0.200   0.000    0.00
   8.150    6.21  -39.67   -0.28   0.000   0.200   0.000    0.00
   8.200    6.42  -38.77   -0.53   0.000   0.200   0.000    0.00
   8.250    5.92  -36.68   -0.27   0.000   0.200   0.000    0.00
   8.300    5.47  -31.09    0.26   0.000   0.200   0.000    0.00
   8.350    5.67  -30.31    0.08   0.000   0.200   0.000    0.00
   8.400    5.67  -35.02   -0.01   0.000   0.200   0.000    0.00
   8.450    5.36  -32.00   -0.21   0.000   0.200   0.000    0.00
   8.500    5.14  -36.37    0.22   0.000   0.200   0.000    0.00
   8.550    5.25  -36.29    0.28   0.000   0.200   0.000    0.00
   8.600    5.47  -39.10    0.21   0.000   0.200   0.000    0.00
   8.650    5.20  -37.21    0.42   0.000   0.200   0.000    0.00
   8.700    5.11  -35.50    0.30   0.000   0.200   0.000    0.00
   8.750    4.69  -36.57    0.33   0.000   0.200   0.000    0.00
   8.800    4.70  -36.08    0.73   0.000   0.200   0.000    0.00
   8.850    4.76  -40.58    1.10   0.000   0.200   0.000    0.00
   8.900    4.75  -35.78    0.84   0.000   0.200   0.000    0.00
   8.950    4.62  -31.05    0.83   0.000   0.200   0.000    0.00
   9.000    4.64  -26.23    0.90   0.000   0.200   0.000    0.00
   9.050    4.99  -26.28    0.75   0.000   0.200   0.000    0.00
   9.100    4.50  -24.42    0.74   0.000   0.200   0.000    0.00
   9.150    4.44  -23.23    0.33   0.000   0.200   0.000    0.00
   9.200    4.45  -19.83    0.47   0.000   0.200   0.000    0.00
   9.250    4.59  -26.21    1.03   0.000   0.200   0.000    0.00
   9.300    4.90  -33.33    0.53   0.000   0.200   0.000    0.00
   9.350    4.48  -35.72   -0.28   0.000   0.200   0.000    0.00
   9.400    3.62  -34.81    0.01   0.000   0.200   0.000    0.00
   9.450    3.54  -33.73    0.04   0.000   0.200   0.000    0.00
   9.500    3.67  -27.12    0.17   0.000   0.200   0.000    0.00
   9.550    3.42  -38.18    0.80   0.000   0.200   0.000    0.00
   9.600    3.80  -24.67    0.12   0.000   0.200   0.000    0.00
   9.650    4.48  -30.11    0.30   0.000   0.200   0.000    0.00
   9.700    4.61  -34.90    0.28   0.000   0.200   0.000    0.00
   9.750    5.45  -33.35   -0.14   0.000   0.200   0.000    0.00
   9.800    5.70  -34.78    0.20   0.000   0.200   0.000    0.00
   9.850    5.49  -34.30    0.25   0.000   0.200   0.000    0.00
   9.900    5.79  -33.37    0.23   0.000   0.200   0.000    0.00
   9.950    6.15  -33.11    0.70   0.000   0.200   0.000    0.00
  10.000    6.25  -29.45    0.41   0.000   0.200   0.000    0.00
  10.050    6.21  -30.62    0.05   0.000   0.200   0.000    0.00
  10.100    6.27  -29.57    0.12   0.000   0.200   0.000    0.00
  10.150    6.49  -27.65    0.07   0.000   0.200   0.000    0.00
  10.200    6.40  -28.05    0.04   0.000   0.200   0.000    0.00
  10.250    6.34  -27.09   -0.45   0.000   0.200   0.000    0.00
  10.300    6.39  -23.33   -0.84   0.000   0.200   0.000    0.00
  10.350    6.27  -20.69   -0.82   0.000   0.200   0.000    0.00
  10.400    6.02  -19.66   -1.18   0.000   0.200   0.000    0.00
  10.450    5.93  -22.66   -1.28   0.000   0.200   0.000    0.00
  10.500    5.76  -23.06   -0.80   0.000   0.200   0.000    0.00
  10.550    5.99  -23.71   -0.81   0.000   0.200   0.000    0.00
  10.600    5.97  -24.97   -0.69   0.000   0.200   0.000    0.00
  10.650    5.78  -27.13   -0.55   0.000   0.200   0.000    0.00
  10.700    4.67  -19.20   -0.36   0.000   0.200   0.000    0.00
  10.750    4.49  -25.64   -0.04   0.000   0.200   0.000    0.00
  10.800    4.75  -26.85    0.02   0.000   0.200   0.000    0.00
  10.850    4.50  -21.86   -0.54   0.000   0.200   0.000    0.00
  10.900    4.65  -21.31   -0.52   0.000   0.200   0.000    0.00
  10.950    4.44  -30.95   -0.22   0.000   0.200   0.000    0.00
  11.000    4.41  -31.54    0.02   0.000   0.200   0.000    0.00
  11.050    3.63  -19.85    0.42   0.000   0.200   0.000    0.00
  11.100    3.00  -18.02    0.46   0.000   0.200   0.000    0.00
  11.150    2.56  -18.25    0.27   0.000   0.200   0.000    0.00
  11.200    2.52  -19.51    0.16   0.000   0.200   0.000    0.00
  11.250    3.22  -20.63    0.45   0.000   0.200   0.000    0.00
  11.300    3.57  -26.40    0.71   0.000   0.200   0.000    0.00
  11.350    3.39  -31.02    0.27   0.000   0.200   0.000    0.00
  11.400    3.14  -36.20    1.36   0.000   0.200   0.000    0.00
  11.450    3.15  -33.77    1.17   0.000   0.200   0.000    0.00
  11.500    3.31  -39.92    0.68   0.000   0.200   0.000    0.00
  11.550    3.73  -41.51    0.66   0.000   0.200   0.000    0.00
  11.600    4.19  -41.52    0.34   0.000   0.200   0.000    0.00
  11.650    3.98  -35.48    1.10   0.000   0.200   0.000    0.00
  11.700    3.50  -41.10    0.92   0.000   0.200   0.000    0.00
  11.750    3.66  -43.80    0.59   0.000   0.200   0.000    0.00
  11.800    2.95  -42.79    0.47   0.000   0.200   0.000    0.00
  11.850    2.62  -35.51    0.15   0.000   0.200   0.000    0.00
  11.900    2.85  -34.84    0.43   0.000   0.200   0.000    0.00
  11.950    2.55  -26.55    0.48   0.000   0.200   0.000    0.00
  12.000    3.20  -28.19    0.38   0.000   0.200   0.000    0.00
  12.050    3.32  -31.98   -0.37   0.000   0.200   0.000    0.00
  12.100    3.18  -30.31    0.49   0.000   0.200   0.000    0.00
  12.150    3.05  -22.99    1.03   0.000   0.200   0.000    0.00
  12.200    2.94  -24.00    0.92   0.000   0.200   0.000    0.00
  12.250    3.53  -25.83    1.42   0.000   0.200   0.000    0.00
  12.300    3.03  -19.37    0.94   0.000   0.200   0.000    0.00
  12.350    2.85   -7.00    1.28   0.000   0.200   0.000    0.00
  12.400    2.45  -14.03    1.93   0.000   0.200   0.000    0.00
  12.450    2.77  -16.66    1.82   0.000   0.200   0.000    0.00
  12.500    2.64  -12.13    1.90   0.000   0.200   0.000    0.00
  12.550    2.42    1.63    2.08   0.000   0.200   0.000    0.00
  12.600    2.61   17.42    1.74   0.000   0.200   0.000    0.00
  12.650    2.92    3.52    2.54   0.000   0.200   0.000    0.00
  12.700    2.51    3.79    2.13   0.000   0.200   0.000    0.00
  12.750    2.34    4.63    1.76   0.000   0.200   0.000    0.00
  12.800    2.35    2.79    2.47   0.000   0.200   0.000    0.00
  12.850    2.69    2.24    2.02   0.000   0.200   0.000    0.00
  12.900    2.73   -3.44    1.90   0.000   0.200   0.000    0.00
  12.950    2.63   -3.47    1.67   0.000   0.200   0.000    0.00
  13.000    2.68   -1.64    1.34   0.000   0.200   0.000    0.00
  13.050    2.80   -3.97    1.27   0.000   0.200   0.000    0.00
  13.100    2.55  -15.92    0.77   0.000   0.200   0.000    0.00
  13.150    2.21  -10.50   -0.16   0.000   0.200   0.000    0.00
  13.200    2.80   -7.36    0.33   0.000   0.200   0.000    0.00
  13.250    3.01  -12.41   -0.12   0.000   0.200   0.000    0.00
  13.300    2.78    1.03    0.22   0.000   0.200   0.000    0.00
  13.350    3.15    9.09    0.36   0.000   0.200   0.000    0.00
  13.400    3.64    6.61   -0.12   0.000   0.200   0.000    0.00
  13.450    3.58    3.91   -0.16   0.000   0.200   0.000    0.00
  13.500    3.46    1.00   -0.57   0.000   0.200   0.000    0.00
  13.550    3.30   13.72    0.62   0.000   0.200   0.000    0.00
  13.600    3.62   19.22    0.76   0.000   0.200   0.000    0.00
  13.650    3.64   25.16    1.17   0.000   0.200   0.000    0.00
  13.700    3.92   21.96    0.94   0.000   0.200   0.000    0.00
  13.750    3.94   18.17    0.99   0.000   0.200   0.000    0.00
  13.800    3.92   13.76    1.09   0.000   0.200   0.000    0.00
  13.850    3.74   15.38    1.09   0.000   0.200   0.000    0.00
  13.900    3.97   16.20    1.28   0.000   0.200   0.000    0.00
  13.950    3.65   15.78    1.12   0.000   0.200   0.000    0.00
  14.000    3.44    9.61    0.98   0.000   0.200   0.000    0.00
  14.050    3.38   12.49    0.53   0.000   0.200   0.000    0.00
  14.100    3.01   17.62    0.23   0.000   0.200   0.000    0.00
  14.150    3.13   20.54   -0.44   0.000   0.200   0.000    0.00
  14.200    3.21   25.08   -0.22   0.000   0.200   0.000    0.00
  14.250    3.88   21.39   -0.56   0.000   0.200   0.000    0.00
  14.300    3.04   18.45   -0.24   0.000   0.200   0.000    0.00
  14.350    2.94   17.06   -0.36   0.000   0.200   0.000    0.00
  14.400    2.93   11.17   -0.49   0.000   0.200   0.000    0.00
  14.450    3.08   15.47   -0.28   0.000   0.200   0.000    0.00
  14.500    2.97    6.16   -0.65   0.000   0.200   0.000    0.00
  14.550    2.77    6.37   -0.77   0.000   0.200   0.000    0.00
  14.600    3.20   16.06   -1.03   0.000   0.200   0.000    0.00
  14.650    3.67    9.85   -0.61   0.000   0.200   0.000    0.00
  14.700    3.26    6.66   -0.16   0.000   0.200   0.000    0.00
  14.750    3.21    6.77   -0.01   0.000   0.200   0.000    0.00
  14.800    3.04    9.19   -0.30   0.000   0.200   0.000    0.00
  14.850    2.70   23.97    0.04   0.000   0.200   0.000    0.00
  14.900    3.06   24.24   -0.23   0.000   0.200   0.000    0.00
  14.950    2.86   35.70   -0.79   0.000   0.200   0.000    0.00
  15.000    2.74   37.80   -0.55   0.000   0.200   0.000    0.00
  15.050    2.91   36.35   -0.29   0.000   0.200   0.000    0.00
  15.100    2.90   30.68    0.25   0.000   0.200   0.000    0.00
  15.150    2.88   30.43    0.24   0.000   0.200   0.000    0.00
  15.200    2.98   30.79    0.38   0.000   0.200   0.000    0.00
  15.250    3.18   33.56    0.07   0.000   0.200   0.000    0.00
  15.300    2.94   34.33    0.30   0.000   0.200   0.000    0.00
  15.350    2.68   33.58    0.83   0.000   0.200   0.000    0.00
  15.400    3.36   40.98    0.77   0.000   0.200   0.000    0.00
  15.450    4.21   41.41    0.44   0.000   0.200   0.000    0.00
  15.500    4.08   34.62    0.53   0.000   0.200   0.000    0.00
  15.550    4.36   37.77    0.54   0.000   0.200   0.000    0.00
  15.600    3.87   37.27    0.06   0.000   0.200   0.000    0.00
  15.650    3.63   44.25    0.16   0.000   0.200   0.000    0.00
  15.700    3.55   47.74   -0.03   0.000   0.200   0.000    0.00
  15.750    3.19   42.88   -0.09   0.000   0.200   0.000    0.00
  15.800    2.88   46.11   -0.40   0.000   0.200   0.000    0.00
  15.850    3.42   49.01    0.28   0.000   0.200   0.000    0.00
  15.900    3.28   51.18    0.74   0.000   0.200   0.000    0.00
  15.950    3.23   43.61    0.06   0.000   0.200   0.000    0.00
  16.000    2.70   35.81    0.70   0.000   0.200   0.000    0.00
  16.050    3.22   37.72    1.01   0.000   0.200   0.000    0.00
  16.100    3.81   41.74    0.90   0.000   0.200   0.000    0.00
  16.150    3.72   36.54    0.70   0.000   0.200   0.000    0.00
  16.200    3.65   29.69    0.94   0.000   0.200   0.000    0.00
  16.250    4.18   27.19    1.02   0.000   0.200   0.000    0.00
  16.300    4.00   23.59    1.30   0.000   0.200   0.000    0.00
  16.350    4.14   25.09    1.03   0.000   0.200   0.000    0.00
  16.400    4.28   19.24    1.12   0.000   0.200   0.000    0.00
  16.450    4.26   22.58    0.39   0.000   0.200   0.000    0.00
  16.500    4.47   28.61    0.41   0.000   0.200   0.000    0.00
  16.550    4.17   36.57    0.86   0.000   0.200   0.000    0.00
  16.600    4.00   33.14    0.66   0.000   0.200   0.000    0.00
  16.650    4.24   34.21    0.02   0.000   0.200   0.000    0.00
  16.700    3.96   36.08   -0.09   0.000   0.200   0.000    0.00
  16.750    3.88   37.87    0.40   0.000   0.200   0.000    0.00
  16.800    3.46   31.66    0.13   0.000   0.200   0.000    0.00
  16.850    3.56   29.88   -0.02   0.000   0.200   0.000    0.00
  16.900    3.97   36.55   -0.13   0.000   0.200   0.000    0.00
  16.950    3.66   36.56   -0.51   0.000   0.200   0.000    0.00
  17.000    3.83   39.87   -0.40   0.000   0.200   0.000    0.00
  17.050    3.72   41.09   -0.25   0.000   0.200   0.000    0.00
  17.100    3.20   40.68   -0.18   0.000   0.200   0.000    0.00
  17.150    3.28   37.43    0.12   0.000   0.200   0.000    0.00
  17.200    3.19   29.64    0.21   0.000   0.200   0.000    0.00
  17.250    3.16   27.29    0.14   0.000   0.200   0.000    0.00
  17.300    2.89   32.39    0.18   0.000   0.200   0.000    0.00
  17.350    2.71   32.29    0.48   0.000   0.200   0.000    0.00
  17.400    2.82   38.77    0.35   0.000   0.200   0.000    0.00
  17.450    2.45   39.22    0.33   0.000   0.200   0.000    0.00
  17.500    2.92   45.22    0.27   0.000   0.200   0.000    0.00
  17.550    3.32   45.65    0.87   0.000   0.200   0.000    0.00
  17.600    3.22   43.34    0.39   0.000   0.200   0.000    0.00
  17.650    3.06   32.11    0.35   0.000   0.200   0.000    0.00
  17.700    3.17   20.55    0.65   0.000   0.200   0.000    0.00
  17.750    2.75   12.77    0.76   0.000   0.200   0.000    0.00
  17.800    2.35    9.56    0.87   0.000   0.200   0.000    0.00
  17.850    3.02    8.60    0.82   0.000   0.200   0.000    0.00
  17.900    2.99   18.96    0.91   0.000   0.200   0.000    0.00
  17.950    2.13   11.90    0.74   0.000   0.200   0.000    0.00
  18.000    2.00    7.21    0.89   0.000   0.200   0.000    0.00
  18.050    2.08   16.41    0.89   0.000   0.200   0.000    0.00
  18.100    2.15   18.89    0.73   0.000   0.200   0.000    0.00
  18.150    2.69    6.03    0.79   0.000   0.200   0.000    0.00
  18.200    2.03    4.02    0.68   0.000   0.200   0.000    0.00
  18.250    2.22    1.89    0.73   0.000   0.200   0.000    0.00
  18.300    2.30  -15.25    0.93   0.000   0.200   0.000    0.00
  18.350    2.59   -5.87    1.18   0.000   0.200   0.000    0.00
  18.400    2.37  -10.41    1.00   0.000   0.200   0.000    0.00
  18.450    2.52  -10.20    0.46   0.000   0.200   0.000    0.00
  18.500    3.12   -8.02    0.41   0.000   0.200   0.000    0.00
  18.550    3.23   -1.82   -0.27   0.000   0.200   0.000    0.00
  18.600    3.98   -2.57   -0.67   0.000   0.200   0.000    0.00
  18.650    3.59   -8.07   -0.92   0.000   0.200   0.000    0.00
  18.700    3.06   -7.85   -0.36   0.000   0.200   0.000    0.00
  18.750    3.08  -14.24   -0.70   0.000   0.200   0.000    0.00
  18.800    2.65  -19.05   -0.50   0.000   0.200   0.000    0.00
  18.850    2.66  -11.37   -0.30   0.000   0.200   0.000    0.00
  18.900    2.42    0.07   -0.28   0.000   0.200   0.000    0.00
  18.950    2.33   -4.59   -0.33   0.000   0.200   0.000    0.00
  19.000    2.22    4.48    0.16   0.000   0.200   0.000    0.00
  19.050    2.67   -0.07    0.04   0.000   0.200   0.000    0.00
  19.100    2.88  -11.28   -0.10   0.000   0.200   0.000    0.00
  19.150    2.99  -17.03   -0.56   0.000   0.200   0.000    0.00
  19.200    3.35  -15.22   -0.74   0.000   0.200   0.000    0.00
  19.250    3.45  -14.64   -0.51   0.000   0.200   0.000    0.00
  19.300    3.24   -6.59   -0.49   0.000   0.200   0.000    0.00
  19.350    3.07   -6.09   -0.76   0.000   0.200   0.000    0.00
  19.400    3.25   -2.70   -0.56   0.000   0.200   0.000    0.00
  19.450    3.18   -9.99   -0.08   0.000   0.200   0.000    0.00
  19.500    2.99  -17.35   -0.29   0.000   0.200   0.000    0.00
  19.550    3.11  -14.40   -0.50   0.000   0.200   0.000    0.00
  19.600    3.85    0.96   -0.56   0.000   0.200   0.000    0.00
  19.650    3.62   -2.57   -0.22   0.000   0.200   0.000    0.00
  19.700    3.73   -5.29    0.34   0.000   0.200   0.000    0.00
  19.750    3.43   -6.53    0.15   0.000   0.200   0.000    0.00
  19.800    3.61   -5.03   -0.66   0.000   0.200   0.000    0.00
  19.850    3.70   -5.68   -0.96   0.000   0.200   0.000    0.00
  19.900    3.68  -12.77   -0.53   0.000   0.200   0.000    0.00
  19.950    3.67   -1.46   -0.57   0.000   0.200   0.000    0.00
  20.000    3.86   -3.18   -1.19   0.000   0.200   0.000    0.00
  20.050    4.14   -5.00   -0.83   0.000   0.200   0.000    0.00
  20.100    4.34   -9.46   -1.09   0.000   0.200   0.000    0.00
  20.150    4.05   -7.62   -0.95   0.000   0.200   0.000    0.00
  20.200    3.52    1.72   -0.46   0.000   0.200   0.000    0.00
  20.250    3.25    1.89   -0.77   0.000   0.200   0.000    0.00
  20.300    3.60   -5.62   -0.26   0.000   0.200   0.000    0.00
  20.350    3.89   -8.13   -0.25   0.000   0.200   0.000    0.00
  20.400    3.35   -7.54   -0.55   0.000   0.200   0.000    0.00
  20.450    3.36   -4.86   -0.76   0.000   0.200   0.000    0.00
  20.500    3.53   -1.99    0.09   0.000   0.200   0.000    0.00
  20.550    3.45  -12.56    0.13   0.000   0.200   0.000    0.00
  20.600    3.43  -12.15    0.10   0.000   0.200   0.000    0.00
  20.650    3.75  -11.78   -0.09   0.000   0.200   0.000    0.00
  20.700    3.92    3.08    0.05   0.000   0.200   0.000    0.00
  20.750    4.12    5.73    0.71   0.000   0.200   0.000    0.00
  20.800    3.62   -0.46    0.94   0.000   0.200   0.000    0.00
  20.850    3.81   -4.24    1.28   0.000   0.200   0.000    0.00
  20.900    3.64   -4.19    1.01   0.000   0.200   0.000    0.00
  20.950    3.85   -6.52    0.97   0.000   0.200   0.000    0.00
  21.000    3.56   -8.17    1.32   0.000   0.200   0.000    0.00
  21.050    3.09  -16.08    1.96   0.000   0.200   0.000    0.00
  21.100    3.07   -9.21    1.55   0.000   0.200   0.000    0.00
  21.150    3.26   -3.29    1.59   0.000   0.200   0.000    0.00
  21.200    2.97   -5.21    1.32   0.000   0.200   0.000    0.00
  21.250    2.49   -8.41    0.77   0.000   0.200   0.000    0.00
  21.300    2.03    6.70    1.29   0.000   0.200   0.000    0.00
  21.350    2.08    5.71    1.73   0.000   0.200   0.000    0.00
  21.400    2.06    5.16    1.79   0.000   0.200   0.000    0.00
  21.450    1.57    3.20    2.02   0.000   0.200   0.000    0.00
  21.500    1.94    7.47    2.08   0.000   0.200   0.000    0.00
  21.550    1.67   -7.63    2.42   0.000   0.200   0.000    0.00
  21.600    2.33  -24.36    2.26   0.000   0.200   0.000    0.00
  21.650    2.37   -6.72    2.13   0.000   0.200   0.000    0.00
  21.700    2.59   -1.29    1.91   0.000   0.200   0.000    0.00
  21.750    3.15   -1.14    1.98   0.000   0.200   0.000    0.00
  21.800    3.32   -6.47    2.69   0.000   0.200   0.000    0.00
  21.850    3.40   -7.98    2.48   0.000   0.200   0.000    0.00
  21.900    3.80   -4.18    1.76   0.000   0.200   0.000    0.00
  21.950    4.06    2.66    1.77   0.000   0.200   0.000    0.00
  22.000    4.42   -7.74    1.84   0.000   0.200   0.000    0.00
  22.050    4.61   -9.56    1.73   0.000   0.200   0.000    0.00
  22.100    4.81   -5.98    2.24   0.000   0.200   0.000    0.00
  22.150    4.54   -1.06    1.85   0.000   0.200   0.000    0.00
  22.200    5.00    1.40    1.34   0.000   0.200   0.000    0.00
  22.250    5.17   -7.35    1.34   0.000   0.200   0.000    0.00
  22.300    4.77  -10.28    1.48   0.000   0.200   0.000    0.00
  22.350    4.84   -6.44    1.56   0.000   0.200   0.000    0.00