! This hub-height wind-speed file was generated by TurbSim (v1.06.00, 21-Sep-2012) on 03-Feb-2018 at 23:31:03.
!
! The requested statistics for this data were:
!    Mean Total Wind Speed =    7.000 m/s
!    Turbulence Intensity  =   21.700%
!
!   Time  HorSpd  WndDir  VerSpd  HorShr  VerShr  LnVShr  GstSpd
!  (sec)   (m/s)   (deg)   (m/s)     (-)     (-)     (-)   (m/s)
   0.000    6.01    5.51   -1.08   0.000   0.200   0.000    0.00
   0.050    5.84    2.39   -1.23   0.000   0.200   0.000    0.00
   0.100    6.17    4.62   -1.08   0.000   0.200   0.000    0.00
   0.150    6.24    3.29   -0.80   0.000   0.200   0.000    0.00
   0.200    6.42    3.75   -0.85   0.000   0.200   0.000    0.00
   0.250    6.35    5.29   -1.22   0.000   0.200   0.000    0.00
   0.300    5.84    8.09   -1.02   0.000   0.200   0.000    0.00
   0.350    5.66    5.03   -0.89   0.000   0.200   0.000    0.00
   0.400    5.52    8.50   -0.47   0.000   0.200   0.000    0.00
   0.450    5.51   11.17   -0.23   0.000   0.200   0.000    0.00
   0.500    5.58    9.21   -0.28   0.000   0.200   0.000    0.00
   0.550    5.77    7.82   -0.40   0.000   0.200   0.000    0.00
   0.600    5.80    5.69   -0.55   0.000   0.200   0.000    0.00
   0.650    5.68    4.84   -0.39   0.000   0.200   0.000    0.00
   0.700    5.73    4.74   -0.59   0.000   0.200   0.000    0.00
   0.750    5.60    5.99   -0.69   0.000   0.200   0.000    0.00
   0.800    5.34    7.39   -0.50   0.000   0.200   0.000    0.00
   0.850    4.96    9.10   -0.67   0.000   0.200   0.000    0.00
   0.900    5.28    9.01   -0.99   0.000   0.200   0.000    0.00
   0.950    5.42   12.80   -0.64   0.000   0.200   0.000    0.00
   1.000    5.31    9.99   -0.78   0.000   0.200   0.000    0.00
   1.050    5.12    8.10   -0.85   0.000   0.200   0.000    0.00
   1.100    5.59    3.16   -1.09   0.000   0.200   0.000    0.00
   1.150    5.42    1.55   -1.38   0.000   0.200   0.000    0.00
   1.200    5.45    2.09   -1.22   0.000   0.200   0.000    0.00
   1.250    5.65    1.94   -1.14   0.000   0.200   0.000    0.00
   1.300    5.99    4.04   -1.28   0.000   0.200   0.000    0.00
   1.350    6.26    4.43   -1.36   0.000   0.200   0.000    0.00
   1.400    6.34    5.46   -1.38   0.000   0.200   0.000    0.00
   1.450    5.84    3.19   -1.46   0.000   0.200   0.000    0.00
   1.500    6.02    0.55   -1.21   0.000   0.200   0.000    0.00
   1.550    5.78    3.30   -0.80   0.000   0.200   0.000    0.00
   1.600    5.84    6.40   -0.41   0.000   0.200   0.000    0.00
   1.650    5.67   -0.40   -0.31   0.000   0.200   0.000    0.00
   1.700    5.37    0.64   -0.23   0.000   0.200   0.000    0.00
   1.750    5.22   -2.46    0.16   0.000   0.200   0.000    0.00
   1.800    5.05   -4.69    0.08   0.000   0.200   0.000    0.00
   1.850    4.93   -0.22    0.58   0.000   0.200   0.000    0.00
   1.900    4.78   -5.95    0.19   0.000   0.200   0.000    0.00
   1.950    5.04   -7.44   -0.18   0.000   0.200   0.000    0.00
   2.000    5.03   -7.92   -0.21   0.000   0.200   0.000    0.00
   2.050    4.90   -5.18   -0.46   0.000   0.200   0.000    0.00
   2.100    5.00   -1.16   -0.52   0.000   0.200   0.000    0.00
   2.150    4.84    3.58   -0.54   0.000   0.200   0.000    0.00
   2.200    5.12    0.90   -0.42   0.000   0.200   0.000    0.00
   2.250    5.33   -3.12   -0.09   0.000   0.200   0.000    0.00
   2.300    5.27   -5.79    0.04   0.000   0.200   0.000    0.00
   2.350    5.68   -7.63   -0.08   0.000   0.200   0.000    0.00
   2.400    5.62  -10.77   -0.56   0.000   0.200   0.000    0.00
   2.450    5.44  -14.14   -0.46   0.000   0.200   0.000    0.00
   2.500    5.32   -7.67   -0.07   0.000   0.200   0.000    0.00
   2.550    5.23   -9.31   -0.22   0.000   0.200   0.000    0.00
   2.600    5.07   -6.78    0.06   0.000   0.200   0.000    0.00
   2.650    5.35   -5.42   -0.27   0.000   0.200   0.000    0.00
   2.700    5.19  -10.20   -0.07   0.000   0.200   0.000    0.00
   2.750    5.38  -13.31    0.20   0.000   0.200   0.000    0.00
   2.800    5.75  -15.40    0.29   0.000   0.200   0.000    0.00
   2.850    5.62  -19.31    0.20   0.000   0.200   0.000    0.00
   2.900    5.79  -21.41    0.07   0.000   0.200   0.000    0.00
   2.950    5.41  -19.12    0.25   0.000   0.200   0.000    0.00
   3.000    5.45  -15.73    0.11   0.000   0.200   0.000    0.00
   3.050    5.56  -17.98    0.05   0.000   0.200   0.000    0.00
   3.100    5.22  -17.04    0.03   0.000   0.200   0.000    0.00
   3.150    5.06  -13.98    0.02   0.000   0.200   0.000    0.00
   3.200    5.15  -12.07   -0.11   0.000   0.200   0.000    0.00
   3.250    5.44  -18.09    0.00   0.000   0.200   0.000    0.00
   3.300    5.58  -22.67    0.29   0.000   0.200   0.000    0.00
   3.350    5.17  -22.94    0.64   0.000   0.200   0.000    0.00
   3.400    5.38  -25.09    0.52   0.000   0.200   0.000    0.00
   3.450    5.93  -26.69    0.54   0.000   0.200   0.000    0.00
   3.500    5.59  -24.25    0.80   0.000   0.200   0.000    0.00
   3.550    5.35  -21.41    0.64   0.000   0.200   0.000    0.00
   3.600    5.55  -22.46    0.87   0.000   0.200   0.000    0.00
   3.650    5.51  -22.20    0.85   0.000   0.200   0.000    0.00
   3.700    5.03  -19.59    0.57   0.000   0.200   0.000    0.00
   3.750    5.21  -20.73    0.82   0.000   0.200   0.000    0.00
   3.800    4.64  -14.04    0.83   0.000   0.200   0.000    0.00
   3.850    5.05  -14.68    0.79   0.000   0.200   0.000    0.00
   3.900    5.12  -15.99    1.02   0.000   0.200   0.000    0.00
   3.950    5.48  -13.35    0.73   0.000   0.200   0.000    0.00
   4.000    5.48  -12.76    0.87   0.000   0.200   0.000    0.00
   4.050    5.22   -9.60    0.87   0.000   0.200   0.000    0.00
   4.100    5.30   -9.91    0.74   0.000   0.200   0.000    0.00
   4.150    5.25  -11.52    0.74   0.000   0.200   0.000    0.00
   4.200    5.10  -13.10    0.57   0.000   0.200   0.000    0.00
   4.250    5.29   -6.09    0.74   0.000   0.200   0.000    0.00
   4.300    5.55   -8.61    0.35   0.000   0.200   0.000    0.00
   4.350    5.59  -10.67    0.31   0.000   0.200   0.000    0.00
   4.400    5.45  -12.68    0.46   0.000   0.200   0.000    0.00
   4.450    5.46  -15.63    0.65   0.000   0.200   0.000    0.00
   4.500    5.40  -13.74    0.82   0.000   0.200   0.000    0.00
   4.550    5.56  -15.56    0.99   0.000   0.200   0.000    0.00
   4.600    5.38  -16.11    0.84   0.000   0.200   0.000    0.00
   4.650    5.36  -16.52    0.95   0.000   0.200   0.000    0.00
   4.700    5.46  -19.02    0.87   0.000   0.200   0.000    0.00
   4.750    5.12  -19.19    0.48   0.000   0.200   0.000    0.00
   4.800    5.02  -17.11    0.82   0.000   0.200   0.000    0.00
   4.850    4.97  -19.10    0.96   0.000   0.200   0.000    0.00
   4.900    4.74  -18.42    1.06   0.000   0.200   0.000    0.00
   4.950    5.02  -17.46    1.19   0.000   0.200   0.000    0.00
   5.000    5.36  -19.22    0.83   0.000   0.200   0.000    0.00
   5.050    5.75  -19.99    0.96   0.000   0.200   0.000    0.00
   5.100    5.96  -18.61    0.84   0.000   0.200   0.000    0.00
   5.150    5.97  -16.70    0.93   0.000   0.200   0.000    0.00
   5.200    5.87  -12.32    0.96   0.000   0.200   0.000    0.00
   5.250    5.95   -8.79    0.67   0.000   0.200   0.000    0.00
   5.300    6.49   -6.46    0.54   0.000   0.200   0.000    0.00
   5.350    6.67   -7.47    0.25   0.000   0.200   0.000    0.00
   5.400    6.66   -8.04    0.61   0.000   0.200   0.000    0.00
   5.450    6.73  -10.73    0.80   0.000   0.200   0.000    0.00
   5.500    6.97  -11.77    0.83   0.000   0.200   0.000    0.00
   5.550    6.75   -9.29    0.54   0.000   0.200   0.000    0.00
   5.600    6.62   -7.29    0.75   0.000   0.200   0.000    0.00
   5.650    6.37   -7.27    0.46   0.000   0.200   0.000    0.00
   5.700    6.74  -12.55    0.73   0.000   0.200   0.000    0.00
   5.750    6.59  -12.39    0.82   0.000   0.200   0.000    0.00
   5.800    6.04   -9.95    0.61   0.000   0.200   0.000    0.00
   5.850    5.83   -9.10    0.65   0.000   0.200   0.000    0.00
   5.900    5.58   -7.82    0.37   0.000   0.200   0.000    0.00
   5.950    5.67   -8.40    0.53   0.000   0.200   0.000    0.00
   6.000    5.99   -7.86    0.54   0.000   0.200   0.000    0.00
   6.050    5.81   -5.02    0.52   0.000   0.200   0.000    0.00
   6.100    6.20   -5.74    0.60   0.000   0.200   0.000    0.00
   6.150    6.19   -8.35    0.54   0.000   0.200   0.000    0.00
   6.200    6.25   -6.93    0.41   0.000   0.200   0.000    0.00
   6.250    6.59   -7.08    0.46   0.000   0.200   0.000    0.00
   6.300    6.53   -7.92    0.36   0.000   0.200   0.000    0.00
   6.350    6.88   -7.40    0.69   0.000   0.200   0.000    0.00
   6.400    7.07   -8.16    0.85   0.000   0.200   0.000    0.00
   6.450    6.88   -7.46    0.87   0.000   0.200   0.000    0.00
   6.500    6.54   -7.66    0.99   0.000   0.200   0.000    0.00
   6.550    6.58   -8.53    0.79   0.000   0.200   0.000    0.00
   6.600    6.62   -8.72    0.66   0.000   0.200   0.000    0.00
   6.650    6.54   -9.43    0.53   0.000   0.200   0.000    0.00
   6.700    6.73  -10.56    0.34   0.000   0.200   0.000    0.00
   6.750    6.89   -9.74    0.22   0.000   0.200   0.000    0.00
   6.800    6.84   -9.57   -0.17   0.000   0.200   0.000    0.00
   6.850    6.81   -7.39    0.16   0.000   0.200   0.000    0.00
   6.900    6.72   -8.36    0.14   0.000   0.200   0.000    0.00
   6.950    6.33   -8.79   -0.12   0.000   0.200   0.000    0.00
   7.000    6.24  -11.21   -0.15   0.000   0.200   0.000    0.00
   7.050    6.27   -8.01   -0.05   0.000   0.200   0.000    0.00
   7.100    6.41   -8.94   -0.19   0.000   0.200   0.000    0.00
   7.150    6.36   -9.16   -0.34   0.000   0.200   0.000    0.00
   7.200    6.53   -7.64   -0.44   0.000   0.200   0.000    0.00
   7.250    6.49  -11.25   -0.52   0.000   0.200   0.000    0.00
   7.300    6.73  -12.40   -0.49   0.000   0.200   0.000    0.00
   7.350    6.54  -12.07   -0.48   0.000   0.200   0.000    0.00
   7.400    6.53  -13.12   -0.56   0.000   0.200   0.000    0.00
   7.450    6.49  -13.26   -0.43   0.000   0.200   0.000    0.00
   7.500    6.38  -16.18    0.05   0.000   0.200   0.000    0.00
   7.550    6.38  -13.86    0.42   0.000   0.200   0.000    0.00
   7.600    6.11  -12.18    0.56   0.000   0.200   0.000    0.00
   7.650    6.27  -11.08    0.47   0.000   0.200   0.000    0.00
   7.700    5.89  -12.53    0.43   0.000   0.200   0.000    0.00
   7.750    6.09  -14.56    0.44   0.000   0.200   0.000    0.00
   7.800    6.16  -13.70    0.59   0.000   0.200   0.000    0.00
   7.850    6.31  -12.17    0.37   0.000   0.200   0.000    0.00
   7.900    6.53  -12.00    0.08   0.000   0.200   0.000    0.00
   7.950    6.64  -11.96   -0.11   0.000   0.200   0.000    0.00
   8.000    6.60  -13.06    0.05   0.000   0.200   0.000    0.00
   8.050    6.51  -15.44    0.15   0.000   0.200   0.000    0.00
   8.100    6.42  -16.13   -0.21   0.000   0.200   0.000    0.00
   8.150    6.35  -15.90    0.06   0.000   0.200   0.000    0.00
   8.200    6.17  -15.46   -0.04   0.000   0.200   0.000    0.00
   8.250    6.31  -17.58   -0.34   0.000   0.200   0.000    0.00
   8.300    6.49  -17.37   -0.27   0.000   0.200   0.000    0.00
   8.350    6.48  -20.27    0.15   0.000   0.200   0.000    0.00
   8.400    6.66  -22.29    0.13   0.000   0.200   0.000    0.00
   8.450    6.87  -20.07   -0.11   0.000   0.200   0.000    0.00
   8.500    6.70  -19.78    0.27   0.000   0.200   0.000    0.00
   8.550    6.50  -20.62    0.26   0.000   0.200   0.000    0.00
   8.600    6.36  -19.22    0.37   0.000   0.200   0.000    0.00
   8.650    6.47  -17.84    0.20   0.000   0.200   0.000    0.00
   8.700    6.38  -17.47   -0.05   0.000   0.200   0.000    0.00
   8.750    6.47  -16.91   -0.02   0.000   0.200   0.000    0.00
   8.800    6.26  -17.49    0.54   0.000   0.200   0.000    0.00
   8.850    6.33  -19.74    0.52   0.000   0.200   0.000    0.00
   8.900    6.48  -17.90    1.00   0.000   0.200   0.000    0.00
   8.950    6.42  -16.69    0.78   0.000   0.200   0.000    0.00
   9.000    6.33  -14.64    0.75   0.000   0.200   0.000    0.00
   9.050    6.20  -16.13    0.76   0.000   0.200   0.000    0.00
   9.100    6.29  -14.10    0.65   0.000   0.200   0.000    0.00
   9.150    6.42  -12.66    0.76   0.000   0.200   0.000    0.00
   9.200    6.30  -15.25    1.36   0.000   0.200   0.000    0.00
   9.250    6.10  -17.95    1.20   0.000   0.200   0.000    0.00
   9.300    6.55  -15.64    1.18   0.000   0.200   0.000    0.00
   9.350    6.53  -15.85    1.50   0.000   0.200   0.000    0.00
   9.400    6.46  -17.13    1.76   0.000   0.200   0.000    0.00
   9.450    6.65  -17.23    1.69   0.000   0.200   0.000    0.00
   9.500    6.37  -17.08    1.70   0.000   0.200   0.000    0.00
   9.550    6.41  -16.02    1.25   0.000   0.200   0.000    0.00
   9.600    6.51  -15.07    0.87   0.000   0.200   0.000    0.00
   9.650    6.34  -13.43    0.90   0.000   0.200   0.000    0.00
   9.700    6.47  -12.16    0.77   0.000   0.200   0.000    0.00
   9.750    6.20   -9.84    0.91   0.000   0.200   0.000    0.00
   9.800    5.77  -13.97    1.01   0.000   0.200   0.000    0.00
   9.850    5.62  -10.01    1.19   0.000   0.200   0.000    0.00
   9.900    6.03   -7.35    1.15   0.000   0.200   0.000    0.00
   9.950    6.24   -8.92    0.96   0.000   0.200   0.000    0.00
  10.000    6.36  -10.96    1.35   0.000   0.200   0.000    0.00
  10.050    6.44  -10.59    1.27   0.000   0.200   0.000    0.00
  10.100    6.26  -13.36    0.77   0.000   0.200   0.000    0.00
  10.150    6.16   -9.63    0.95   0.000   0.200   0.000    0.00
  10.200    6.54   -8.64    1.04   0.000   0.200   0.000    0.00
  10.250    6.71   -9.48    0.59   0.000   0.200   0.000    0.00
  10.300    6.52  -12.00    0.45   0.000   0.200   0.000    0.00
  10.350    6.91  -10.66    0.16   0.000   0.200   0.000    0.00
  10.400    6.98   -9.51   -0.01   0.000   0.200   0.000    0.00
  10.450    6.54  -12.13    0.17   0.000   0.200   0.000    0.00
  10.500    5.98  -12.73   -0.02   0.000   0.200   0.000    0.00
  10.550    6.15  -11.59   -0.42   0.000   0.200   0.000    0.00
  10.600    5.90  -10.51   -0.84   0.000   0.200   0.000    0.00
  10.650    6.03   -8.12   -0.74   0.000   0.200   0.000    0.00
  10.700    6.24   -8.80   -0.84   0.000   0.200   0.000    0.00
  10.750    6.28  -12.75   -1.22   0.000   0.200   0.000    0.00
  10.800    6.32  -12.21   -0.95   0.000   0.200   0.000    0.00
  10.850    6.54  -11.09   -0.95   0.000   0.200   0.000    0.00
  10.900    6.82   -7.20   -1.02   0.000   0.200   0.000    0.00
  10.950    6.63   -9.18   -1.16   0.000   0.200   0.000    0.00
  11.000    6.95   -5.42   -0.92   0.000   0.200   0.000    0.00
  11.050    7.42   -3.12   -0.65   0.000   0.200   0.000    0.00
  11.100    7.22   -4.53   -0.60   0.000   0.200   0.000    0.00
  11.150    7.41   -5.11   -0.69   0.000   0.200   0.000    0.00
  11.200    7.44   -7.18   -0.96   0.000   0.200   0.000    0.00
  11.250    7.90   -6.45   -0.83   0.000   0.200   0.000    0.00
  11.300    7.95   -5.34   -0.99   0.000   0.200   0.000    0.00
  11.350    8.01   -7.20   -0.96   0.000   0.200   0.000    0.00
  11.400    7.59   -7.92   -0.97   0.000   0.200   0.000    0.00
  11.450    7.41   -6.67   -0.89   0.000   0.200   0.000    0.00
  11.500    7.59   -3.87   -1.17   0.000   0.200   0.000    0.00
  11.550    7.71   -6.10   -1.44   0.000   0.200   0.000    0.00
  11.600    7.84   -6.11   -1.18   0.000   0.200   0.000    0.00
  11.650    7.54   -5.94   -0.92   0.000   0.200   0.000    0.00
  11.700    7.82   -6.60   -0.49   0.000   0.200   0.000    0.00
  11.750    7.80   -7.37   -0.39   0.000   0.200   0.000    0.00
  11.800    7.45   -4.63   -0.21   0.000   0.200   0.000    0.00
  11.850    7.55   -6.98    0.02   0.000   0.200   0.000    0.00
  11.900    7.46   -4.25   -0.04   0.000   0.200   0.000    0.00
  11.950    7.47   -6.07   -0.51   0.000   0.200   0.000    0.00
  12.000    7.13   -6.49   -0.38   0.000   0.200   0.000    0.00
  12.050    6.84   -4.81   -0.14   0.000   0.200   0.000    0.00
  12.100    6.86   -3.32    0.09   0.000   0.200   0.000    0.00
  12.150    6.99   -3.15   -0.14   0.000   0.200   0.000    0.00
  12.200    6.84   -4.29   -0.05   0.000   0.200   0.000    0.00
  12.250    6.94   -7.92   -0.17   0.000   0.200   0.000    0.00
  12.300    7.02   -5.53   -0.06   0.000   0.200   0.000    0.00
  12.350    6.94   -2.92   -0.13   0.000   0.200   0.000    0.00
  12.400    6.96   -3.16   -0.40   0.000   0.200   0.000    0.00
  12.450    6.87   -0.55   -0.21   0.000   0.200   0.000    0.00
  12.500    6.99    3.48   -0.28   0.000   0.200   0.000    0.00
  12.550    6.86    0.44   -0.44   0.000   0.200   0.000    0.00
  12.600    6.73    1.90   -0.20   0.000   0.200   0.000    0.00
  12.650    6.60    2.28   -0.08   0.000   0.200   0.000    0.00
  12.700    6.73   -1.11   -0.08   0.000   0.200   0.000    0.00
  12.750    6.89   -0.85   -0.43   0.000   0.200   0.000    0.00
  12.800    6.93   -2.35   -0.09   0.000   0.200   0.000    0.00
  12.850    7.08   -2.17    0.03   0.000   0.200   0.000    0.00
  12.900    6.98   -0.26    0.09   0.000   0.200   0.000    0.00
  12.950    6.94   -0.07   -0.11   0.000   0.200   0.000    0.00
  13.000    6.75    0.49   -0.06   0.000   0.200   0.000    0.00
  13.050    6.89   -0.57    0.00   0.000   0.200   0.000    0.00
  13.100    7.05    0.79    0.00   0.000   0.200   0.000    0.00
  13.150    7.13   -0.89    0.11   0.000   0.200   0.000    0.00
  13.200    7.36   -2.56    0.29   0.000   0.200   0.000    0.00
  13.250    7.37   -5.41    0.13   0.000   0.200   0.000    0.00
  13.300    7.36   -6.19    0.10   0.000   0.200   0.000    0.00
  13.350    7.78   -4.84   -0.17   0.000   0.200   0.000    0.00
  13.400    7.75   -7.58    0.25   0.000   0.200   0.000    0.00
  13.450    7.57   -5.49    0.19   0.000   0.200   0.000    0.00
  13.500    7.43   -1.31    0.22   0.000   0.200   0.000    0.00
  13.550    7.63   -1.57    0.45   0.000   0.200   0.000    0.00
  13.600    7.62    0.61    0.42   0.000   0.200   0.000    0.00
  13.650    7.50    0.04    0.47   0.000   0.200   0.000    0.00
  13.700    7.73    1.11    0.72   0.000   0.200   0.000    0.00
  13.750    7.88    3.79    0.44   0.000   0.200   0.000    0.00
  13.800    7.91    3.84    0.22   0.000   0.200   0.000    0.00
  13.850    7.84    3.61    0.30   0.000   0.200   0.000    0.00
  13.900    7.55    0.77    0.27   0.000   0.200   0.000    0.00
  13.950    7.66    0.10    0.73   0.000   0.200   0.000    0.00
  14.000    7.93    2.36    0.62   0.000   0.200   0.000    0.00
  14.050    7.97    4.09    0.44   0.000   0.200   0.000    0.00
  14.100    8.08    4.81    0.60   0.000   0.200   0.000    0.00
  14.150    7.93    5.81    0.31   0.000   0.200   0.000    0.00
  14.200    7.99    8.19    0.15   0.000   0.200   0.000    0.00
  14.250    8.06   10.05    0.04   0.000   0.200   0.000    0.00
  14.300    8.31    8.64    0.18   0.000   0.200   0.000    0.00
  14.350    8.22    5.52    0.04   0.000   0.200   0.000    0.00
  14.400    8.13    4.82   -0.23   0.000   0.200   0.000    0.00
  14.450    8.19    4.42   -0.37   0.000   0.200   0.000    0.00
  14.500    8.16    4.96   -0.53   0.000   0.200   0.000    0.00
  14.550    8.21    1.42    0.02   0.000   0.200   0.000    0.00
  14.600    8.26    0.82    0.25   0.000   0.200   0.000    0.00
  14.650    8.36    4.29    0.23   0.000   0.200   0.000    0.00
  14.700    8.73    6.36    0.03   0.000   0.200   0.000    0.00
  14.750    8.48    6.65   -0.13   0.000   0.200   0.000    0.00
  14.800    8.46    5.02   -0.51   0.000   0.200   0.000    0.00
  14.850    8.51    3.67   -0.41   0.000   0.200   0.000    0.00
  14.900    8.44    8.52   -0.03   0.000   0.200   0.000    0.00
  14.950    8.42    8.37    0.00   0.000   0.200   0.000    0.00
  15.000    8.56    7.47    0.22   0.000   0.200   0.000    0.00
  15.050    8.46    6.21    0.37   0.000   0.200   0.000    0.00
  15.100    8.49    4.16    0.13   0.000   0.200   0.000    0.00
  15.150    8.38    2.83    0.25   0.000   0.200   0.000    0.00
  15.200    8.53    2.66    0.51   0.000   0.200   0.000    0.00
  15.250    8.27    2.56   -0.04   0.000   0.200   0.000    0.00
  15.300    8.56    2.83    0.07   0.000   0.200   0.000    0.00
  15.350    8.42    2.79    0.25   0.000   0.200   0.000    0.00
  15.400    8.61    5.89    0.18   0.000   0.200   0.000    0.00
  15.450    8.52    3.17    0.07   0.000   0.200   0.000    0.00
  15.500    8.44    0.87   -0.16   0.000   0.200   0.000    0.00
  15.550    9.01    0.51   -0.33   0.000   0.200   0.000    0.00
  15.600    8.91    1.39   -0.36   0.000   0.200   0.000    0.00
  15.650    8.62    3.27   -0.63   0.000   0.200   0.000    0.00
  15.700    8.66    3.10   -0.86   0.000   0.200   0.000    0.00
  15.750    8.61    3.15   -0.62   0.000   0.200   0.000    0.00
  15.800    8.57    6.18   -0.60   0.000   0.200   0.000    0.00
  15.850    8.36    3.50   -0.55   0.000   0.200   0.000    0.00
  15.900    8.10    2.06   -0.73   0.000   0.200   0.000    0.00
  15.950    8.15   -0.76   -0.82   0.000   0.200   0.000    0.00
  16.000    8.43   -1.66   -0.57   0.000   0.200   0.000    0.00
  16.050    8.10    0.08   -0.35   0.000   0.200   0.000    0.00
  16.100    7.88   -0.38   -0.32   0.000   0.200   0.000    0.00
  16.150    7.81   -2.22   -0.11   0.000   0.200   0.000    0.00
  16.200    7.73   -2.52    0.02   0.000   0.200   0.000    0.00
  16.250    8.05   -3.20    0.03   0.000   0.200   0.000    0.00
  16.300    8.61   -4.51    0.15   0.000   0.200   0.000    0.00
  16.350    8.29   -3.27   -0.14   0.000   0.200   0.000    0.00
  16.400    8.18   -2.49   -0.63   0.000   0.200   0.000    0.00
  16.450    8.32   -1.34   -0.91   0.000   0.200   0.000    0.00
  16.500    8.43   -2.20   -0.64   0.000   0.200   0.000    0.00
  16.550    8.46   -3.86   -0.61   0.000   0.200   0.000    0.00
  16.600    8.55   -3.36   -0.32   0.000   0.200   0.000    0.00
  16.650    8.56   -3.32   -0.21   0.000   0.200   0.000    0.00
  16.700    8.78   -2.04   -0.16   0.000   0.200   0.000    0.00
  16.750    8.90   -4.14   -0.31   0.000   0.200   0.000    0.00
  16.800    9.04   -5.31   -0.12   0.000   0.200   0.000    0.00
  16.850    9.04   -3.80    0.03   0.000   0.200   0.000    0.00
  16.900    9.22   -2.91    0.17   0.000   0.200   0.000    0.00
  16.950    9.15   -4.15    0.28   0.000   0.200   0.000    0.00
  17.000    8.67   -6.35   -0.04   0.000   0.200   0.000    0.00
  17.050    8.46   -6.25   -0.21   0.000   0.200   0.000    0.00
  17.100    8.46   -3.30    0.02   0.000   0.200   0.000    0.00
  17.150    8.48   -5.55   -0.23   0.000   0.200   0.000    0.00
  17.200    8.08   -4.31   -0.43   0.000   0.200   0.000    0.00
  17.250    8.12   -2.49   -0.30   0.000   0.200   0.000    0.00
  17.300    8.33   -0.46   -0.46   0.000   0.200   0.000    0.00
  17.350    8.28   -3.78   -0.31   0.000   0.200   0.000    0.00
  17.400    8.45   -3.80    0.03   0.000   0.200   0.000    0.00
  17.450    8.34   -1.97   -0.24   0.000   0.200   0.000    0.00
  17.500    8.57    0.01   -0.21   0.000   0.200   0.000    0.00
  17.550    8.72   -1.13   -0.02   0.000   0.200   0.000    0.00
  17.600    8.70   -0.34   -0.06   0.000   0.200   0.000    0.00
  17.650    8.63   -1.67    0.21   0.000   0.200   0.000    0.00
  17.700    8.53   -3.64    0.07   0.000   0.200   0.000    0.00
  17.750    8.24   -1.31   -0.22   0.000   0.200   0.000    0.00
  17.800    8.39   -0.52   -0.58   0.000   0.200   0.000    0.00
  17.850    8.17   -2.44   -0.21   0.000   0.200   0.000    0.00
  17.900    7.94   -3.02   -0.13   0.000   0.200   0.000    0.00
  17.950    7.98   -3.36   -0.27   0.000   0.200   0.000    0.00
  18.000    7.96   -2.24   -0.18   0.000   0.200   0.000    0.00
  18.050    8.01   -2.34   -0.19   0.000   0.200   0.000    0.00
  18.100    7.80    0.13   -0.33   0.000   0.200   0.000    0.00
  18.150    7.61    1.34   -0.55   0.000   0.200   0.000    0.00
  18.200    7.63    1.91   -0.24   0.000   0.200   0.000    0.00
  18.250    7.91   -0.12   -0.34   0.000   0.200   0.000    0.00
  18.300    7.87   -1.11   -0.44   0.000   0.200   0.000    0.00
  18.350    7.66   -2.00   -0.64   0.000   0.200   0.000    0.00
  18.400    8.16   -1.96   -0.71   0.000   0.200   0.000    0.00
  18.450    8.21   -2.66   -0.91   0.000   0.200   0.000    0.00
  18.500    8.13   -3.10   -1.04   0.000   0.200   0.000    0.00
  18.550    8.08   -5.30   -0.83   0.000   0.200   0.000    0.00
  18.600    7.94   -5.45   -0.71   0.000   0.200   0.000    0.00
  18.650    8.58   -3.70   -0.94   0.000   0.200   0.000    0.00
  18.700    8.63   -4.70   -0.76   0.000   0.200   0.000    0.00
  18.750    8.44   -4.78   -0.78   0.000   0.200   0.000    0.00
  18.800    8.66   -4.20   -0.38   0.000   0.200   0.000    0.00
  18.850    8.92   -2.73   -0.42   0.000   0.200   0.000    0.00
  18.900    8.73   -2.64   -0.58   0.000   0.200   0.000    0.00
  18.950    8.72   -3.93   -0.64   0.000   0.200   0.000    0.00
  19.000    8.62   -3.58   -0.66   0.000   0.200   0.000    0.00
  19.050    9.02   -2.86   -0.62   0.000   0.200   0.000    0.00
  19.100    9.24   -3.78   -0.91   0.000   0.200   0.000    0.00
  19.150    9.08   -4.31   -0.40   0.000   0.200   0.000    0.00
  19.200    8.97   -5.74   -0.63   0.000   0.200   0.000    0.00
  19.250    9.00   -7.53   -0.60   0.000   0.200   0.000    0.00
  19.300    8.92   -5.24   -0.74   0.000   0.200   0.000    0.00
  19.350    8.94   -4.88   -0.57   0.000   0.200   0.000    0.00
  19.400    8.71   -4.84   -0.72   0.000   0.200   0.000    0.00
  19.450    8.91   -4.81   -0.37   0.000   0.200   0.000    0.00
  19.500    8.81   -6.01   -0.30   0.000   0.200   0.000    0.00
  19.550    8.87   -7.91   -0.69   0.000   0.200   0.000    0.00
  19.600    8.71   -9.32   -0.65   0.000   0.200   0.000    0.00
  19.650    8.60   -8.61   -0.81   0.000   0.200   0.000    0.00
  19.700    8.73   -7.87   -0.77   0.000   0.200   0.000    0.00
  19.750    8.90   -7.05   -1.08   0.000   0.200   0.000    0.00
  19.800    8.97   -8.70   -0.75   0.000   0.200   0.000    0.00
  19.850    8.94  -10.31   -0.30   0.000   0.200   0.000    0.00
  19.900    8.91   -9.12   -0.45   0.000   0.200   0.000    0.00
  19.950    9.05  -10.86   -0.41   0.000   0.200   0.000    0.00
  20.000    8.40   -9.60   -0.49   0.000   0.200   0.000    0.00
  20.050    8.34   -8.74   -1.19   0.000   0.200   0.000    0.00
  20.100    8.31   -8.60   -0.86   0.000   0.200   0.000    0.00
  20.150    8.65  -11.20   -0.91   0.000   0.200   0.000    0.00
  20.200    8.76  -10.38   -0.95   0.000   0.200   0.000    0.00
  20.250    8.77   -9.80   -0.88   0.000   0.200   0.000    0.00
  20.300    8.69   -9.50   -0.98   0.000   0.200   0.000    0.00
  20.350    8.78   -8.92   -1.23   0.000   0.200   0.000    0.00
  20.400    9.01   -9.14   -1.24   0.000   0.200   0.000    0.00
  20.450    9.15   -7.28   -1.09   0.000   0.200   0.000    0.00
  20.500    9.44   -7.51   -1.04   0.000   0.200   0.000    0.00
  20.550    9.34   -8.82   -0.92   0.000   0.200   0.000    0.00
  20.600    9.48  -10.98   -0.71   0.000   0.200   0.000    0.00
  20.650    9.52  -13.81   -0.87   0.000   0.200   0.000    0.00
  20.700    9.16  -13.66   -0.52   0.000   0.200   0.000    0.00
  20.750    8.77  -12.81   -0.13   0.000   0.200   0.000    0.00
  20.800    8.65  -12.23   -0.51   0.000   0.200   0.000    0.00
  20.850    8.66  -11.87   -0.80   0.000   0.200   0.000    0.00
  20.900    8.89   -9.03   -1.07   0.000   0.200   0.000    0.00
  20.950    8.85   -7.54   -0.88   0.000   0.200   0.000    0.00
  21.000    8.73   -5.88   -0.81   0.000   0.200   0.000    0.00
  21.050    8.89   -3.69   -0.66   0.000   0.200   0.000    0.00
  21.100    9.30   -2.47   -0.41   0.000   0.200   0.000    0.00
  21.150    9.01   -1.70   -0.65   0.000   0.200   0.000    0.00
  21.200    8.73   -3.91   -0.67   0.000   0.200   0.000    0.00
  21.250    8.57   -3.66   -0.42   0.000   0.200   0.000    0.00
  21.300    8.01   -2.91   -0.83   0.000   0.200   0.000    0.00
  21.350    7.88   -1.78   -0.68   0.000   0.200   0.000    0.00
  21.400    8.26   -1.78   -0.42   0.000   0.200   0.000    0.00
  21.450    8.02   -1.47   -0.48   0.000   0.200   0.000    0.00
  21.500    7.79   -1.33   -0.27   0.000   0.200   0.000    0.00
  21.550    8.06   -3.25   -0.19   0.000   0.200   0.000    0.00
  21.600    7.91   -4.64   -0.56   0.000   0.200   0.000    0.00
  21.650    7.95   -5.61   -0.38   0.000   0.200   0.000    0.00
  21.700    8.24   -5.64   -0.28   0.000   0.200   0.000    0.00
  21.750    8.25   -5.07   -0.19   0.000   0.200   0.000    0.00
  21.800    7.92   -7.38   -0.26   0.000   0.200   0.000    0.00
  21.850    8.24   -8.30   -0.41   0.000   0.200   0.000    0.00
  21.900    8.49   -6.39   -0.24   0.000   0.200   0.000    0.00
  21.950    8.57   -5.20   -0.61   0.000   0.200   0.000    0.00
  22.000    8.51   -3.17   -0.84   0.000   0.200   0.000    0.00
  22.050    8.51   -4.57   -1.10   0.000   0.200   0.000    0.00
  22.100    8.41   -4.30   -0.80   0.000   0.200   0.000    0.00
  22.150    8.71   -1.45   -0.54   0.000   0.200   0.000    0.00
  22.200    8.76   -1.69   -0.55   0.000   0.200   0.000    0.00
  22.250    8.91   -0.60   -0.41   0.000   0.200   0.000    0.00
  22.300    8.96   -0.94   -0.56   0.000   0.200   0.000    0.00
  22.350    8.79   -1.77   -0.75   0.000   0.200   0.000    0.00