! This hub-height wind-speed file was generated by TurbSim (v1.06.00, 21-Sep-2012) on 03-Feb-2018 at 23:28:30.
!
! The requested statistics for this data were:
!    Mean Total Wind Speed =    9.000 m/s
!    Turbulence Intensity  =   19.211%
!
!   Time  HorSpd  WndDir  VerSpd  HorShr  VerShr  LnVShr  GstSpd
!  (sec)   (m/s)   (deg)   (m/s)     (-)     (-)     (-)   (m/s)
   0.000    9.98   -4.81   -0.94   0.000   0.200   0.000    0.00
   0.050   10.17   -4.87   -0.81   0.000   0.200   0.000    0.00
   0.100   10.20   -6.92   -0.56   0.000   0.200   0.000    0.00
   0.150    9.71   -6.63   -0.68   0.000   0.200   0.000    0.00
   0.200    9.74   -4.86   -0.81   0.000   0.200   0.000    0.00
   0.250    9.79   -5.28   -1.22   0.000   0.200   0.000    0.00
   0.300    9.57   -5.76   -1.45   0.000   0.200   0.000    0.00
   0.350    9.51   -4.47   -1.52   0.000   0.200   0.000    0.00
   0.400    9.45   -4.84   -1.09   0.000   0.200   0.000    0.00
   0.450    9.30   -4.40   -0.92   0.000   0.200   0.000    0.00
   0.500    9.19   -6.07   -1.18   0.000   0.200   0.000    0.00
   0.550    9.08   -4.95   -1.46   0.000   0.200   0.000    0.00
   0.600    9.06   -8.07   -0.72   0.000   0.200   0.000    0.00
   0.650    9.50   -4.24   -0.61   0.000   0.200   0.000    0.00
   0.700    9.24   -5.92   -0.49   0.000   0.200   0.000    0.00
   0.750    9.12   -6.36   -0.34   0.000   0.200   0.000    0.00
   0.800    8.59   -7.43   -0.69   0.000   0.200   0.000    0.00
   0.850    8.18   -3.99   -0.72   0.000   0.200   0.000    0.00
   0.900    8.27   -3.63   -0.20   0.000   0.200   0.000    0.00
   0.950    8.61   -3.78   -0.37   0.000   0.200   0.000    0.00
   1.000    8.67   -0.99   -0.59   0.000   0.200   0.000    0.00
   1.050    8.59   -2.60   -0.59   0.000   0.200   0.000    0.00
   1.100    8.74   -1.90   -0.71   0.000   0.200   0.000    0.00
   1.150    8.70   -1.41   -1.07   0.000   0.200   0.000    0.00
   1.200    8.42   -2.28   -1.21   0.000   0.200   0.000    0.00
   1.250    8.74   -1.54   -1.60   0.000   0.200   0.000    0.00
   1.300    8.98   -1.13   -1.45   0.000   0.200   0.000    0.00
   1.350    8.77   -0.48   -1.78   0.000   0.200   0.000    0.00
   1.400    8.92    1.42   -1.89   0.000   0.200   0.000    0.00
   1.450    9.22   -0.96   -2.13   0.000   0.200   0.000    0.00
   1.500    9.47   -2.78   -2.07   0.000   0.200   0.000    0.00
   1.550    9.57   -0.87   -1.67   0.000   0.200   0.000    0.00
   1.600    9.53   -0.77   -1.40   0.000   0.200   0.000    0.00
   1.650    9.25   -0.69   -1.34   0.000   0.200   0.000    0.00
   1.700    8.99   -1.50   -1.54   0.000   0.200   0.000    0.00
   1.750    9.28   -3.16   -1.56   0.000   0.200   0.000    0.00
   1.800    9.50   -5.06   -1.47   0.000   0.200   0.000    0.00
   1.850    9.12   -4.07   -1.57   0.000   0.200   0.000    0.00
   1.900    9.32   -4.73   -1.48   0.000   0.200   0.000    0.00
   1.950    9.33   -3.56   -0.81   0.000   0.200   0.000    0.00
   2.000    9.24   -6.42   -0.30   0.000   0.200   0.000    0.00
   2.050    9.37  -10.84   -0.82   0.000   0.200   0.000    0.00
   2.100    9.79  -10.13   -0.68   0.000   0.200   0.000    0.00
   2.150    9.55  -10.12   -0.70   0.000   0.200   0.000    0.00
   2.200    9.64  -11.12   -0.65   0.000   0.200   0.000    0.00
   2.250    9.45   -7.58   -0.84   0.000   0.200   0.000    0.00
   2.300    9.48  -10.35   -0.62   0.000   0.200   0.000    0.00
   2.350    9.04   -6.62   -0.61   0.000   0.200   0.000    0.00
   2.400    8.66   -7.57   -0.90   0.000   0.200   0.000    0.00
   2.450    8.74   -8.78   -0.46   0.000   0.200   0.000    0.00
   2.500    8.83   -5.76   -0.01   0.000   0.200   0.000    0.00
   2.550    8.77   -4.46   -0.24   0.000   0.200   0.000    0.00
   2.600    8.68   -4.09   -0.01   0.000   0.200   0.000    0.00
   2.650    8.47   -4.99   -0.05   0.000   0.200   0.000    0.00
   2.700    8.13   -6.50    0.16   0.000   0.200   0.000    0.00
   2.750    7.94   -8.65    0.25   0.000   0.200   0.000    0.00
   2.800    8.29   -9.46    0.36   0.000   0.200   0.000    0.00
   2.850    8.86   -9.10    0.31   0.000   0.200   0.000    0.00
   2.900    8.46   -9.98    0.39   0.000   0.200   0.000    0.00
   2.950    8.55  -11.44    0.70   0.000   0.200   0.000    0.00
   3.000    8.88  -13.15    0.43   0.000   0.200   0.000    0.00
   3.050    9.21  -10.00    0.64   0.000   0.200   0.000    0.00
   3.100    9.31   -9.93    0.68   0.000   0.200   0.000    0.00
   3.150    9.27   -9.03    1.00   0.000   0.200   0.000    0.00
   3.200    8.97  -11.33    1.15   0.000   0.200   0.000    0.00
   3.250    8.95  -10.15    0.95   0.000   0.200   0.000    0.00
   3.300    8.66  -10.43    0.81   0.000   0.200   0.000    0.00
   3.350    8.80   -9.07    0.58   0.000   0.200   0.000    0.00
   3.400    8.78   -7.34    0.13   0.000   0.200   0.000    0.00
   3.450    8.64   -6.23    0.35   0.000   0.200   0.000    0.00
   3.500    8.97   -4.28   -0.09   0.000   0.200   0.000    0.00
   3.550    9.09   -1.48    0.18   0.000   0.200   0.000    0.00
   3.600    9.03    0.86    0.33   0.000   0.200   0.000    0.00
   3.650    9.10   -2.10    0.18   0.000   0.200   0.000    0.00
   3.700    9.14   -1.33    0.08   0.000   0.200   0.000    0.00
   3.750    9.16   -4.89   -0.11   0.000   0.200   0.000    0.00
   3.800    9.12   -1.47   -0.04   0.000   0.200   0.000    0.00
   3.850    9.45   -0.36   -0.02   0.000   0.200   0.000    0.00
   3.900    9.55   -0.28    0.10   0.000   0.200   0.000    0.00
   3.950    9.14   -0.25    0.15   0.000   0.200   0.000    0.00
   4.000    8.94   -0.06    0.05   0.000   0.200   0.000    0.00
   4.050    9.04    0.10   -0.02   0.000   0.200   0.000    0.00
   4.100    8.93    0.22   -0.10   0.000   0.200   0.000    0.00
   4.150    9.06   -2.77    0.40   0.000   0.200   0.000    0.00
   4.200    9.32   -2.44    0.17   0.000   0.200   0.000    0.00
   4.250    9.72   -1.87    0.52   0.000   0.200   0.000    0.00
   4.300    9.39   -0.02    0.47   0.000   0.200   0.000    0.00
   4.350    9.14    0.82    0.17   0.000   0.200   0.000    0.00
   4.400    9.52    0.37   -0.03   0.000   0.200   0.000    0.00
   4.450    9.41    0.81   -0.22   0.000   0.200   0.000    0.00
   4.500    9.34    3.74    0.09   0.000   0.200   0.000    0.00
   4.550    9.51    2.62   -0.07   0.000   0.200   0.000    0.00
   4.600    9.55    4.18   -0.09   0.000   0.200   0.000    0.00
   4.650    9.26    3.31    0.30   0.000   0.200   0.000    0.00
   4.700    9.30   -0.83    0.50   0.000   0.200   0.000    0.00
   4.750    9.22   -2.19    0.33   0.000   0.200   0.000    0.00
   4.800    8.97    1.73    1.28   0.000   0.200   0.000    0.00
   4.850    9.15    1.59    0.92   0.000   0.200   0.000    0.00
   4.900    8.92    0.98    1.16   0.000   0.200   0.000    0.00
   4.950    8.71    0.30    1.25   0.000   0.200   0.000    0.00
   5.000    8.84   -0.12    0.95   0.000   0.200   0.000    0.00
   5.050    9.09    1.18    0.85   0.000   0.200   0.000    0.00
   5.100    9.17    3.28    0.81   0.000   0.200   0.000    0.00
   5.150    9.36    6.93    0.68   0.000   0.200   0.000    0.00
   5.200    9.48    7.90    0.59   0.000   0.200   0.000    0.00
   5.250    9.41   10.96    0.79   0.000   0.200   0.000    0.00
   5.300    9.65   12.13    1.01   0.000   0.200   0.000    0.00
   5.350    9.54   11.38    1.08   0.000   0.200   0.000    0.00
   5.400    9.49   10.66    1.32   0.000   0.200   0.000    0.00
   5.450    8.91    7.57    1.59   0.000   0.200   0.000    0.00
   5.500    8.75    4.72    0.83   0.000   0.200   0.000    0.00
   5.550    8.94    6.33    0.46   0.000   0.200   0.000    0.00
   5.600    8.77    6.89    0.67   0.000   0.200   0.000    0.00
   5.650    8.74    5.06    1.59   0.000   0.200   0.000    0.00
   5.700    8.87    5.58    1.23   0.000   0.200   0.000    0.00
   5.750    9.04    2.25    0.94   0.000   0.200   0.000    0.00
   5.800    8.87    4.47    1.36   0.000   0.200   0.000    0.00
   5.850    9.07    6.90    1.40   0.000   0.200   0.000    0.00
   5.900    9.21    7.20    0.96   0.000   0.200   0.000    0.00
   5.950    9.33    7.02    1.50   0.000   0.200   0.000    0.00
   6.000    9.53    4.45    1.30   0.000   0.200   0.000    0.00
   6.050    9.45    2.35    1.78   0.000   0.200   0.000    0.00
   6.100    9.60    4.23    1.89   0.000   0.200   0.000    0.00
   6.150   10.11    3.85    1.75   0.000   0.200   0.000    0.00
   6.200   10.24    5.49    1.40   0.000   0.200   0.000    0.00
   6.250   10.72    6.38    0.79   0.000   0.200   0.000    0.00
   6.300   10.65    5.85    0.71   0.000   0.200   0.000    0.00
   6.350   10.74    6.89    0.86   0.000   0.200   0.000    0.00
   6.400   10.58    4.16    1.10   0.000   0.200   0.000    0.00
   6.450   10.60    3.81    1.10   0.000   0.200   0.000    0.00
   6.500   10.73    4.76    1.01   0.000   0.200   0.000    0.00
   6.550   10.46    1.17    0.83   0.000   0.200   0.000    0.00
   6.600   10.26    1.45    0.88   0.000   0.200   0.000    0.00
   6.650   10.18    2.01    0.91   0.000   0.200   0.000    0.00
   6.700    9.87    1.05    0.56   0.000   0.200   0.000    0.00
   6.750   10.11    1.32    0.97   0.000   0.200   0.000    0.00
   6.800   10.09    2.33    0.76   0.000   0.200   0.000    0.00
   6.850   10.20    1.15    0.80   0.000   0.200   0.000    0.00
   6.900   10.17    2.72    1.15   0.000   0.200   0.000    0.00
   6.950    9.96    2.35    0.65   0.000   0.200   0.000    0.00
   7.000   10.15   -0.22    1.06   0.000   0.200   0.000    0.00
   7.050   10.57    1.02    0.78   0.000   0.200   0.000    0.00
   7.100   10.78    2.22    1.24   0.000   0.200   0.000    0.00
   7.150   10.61    2.43    1.39   0.000   0.200   0.000    0.00
   7.200   10.18    3.16    1.16   0.000   0.200   0.000    0.00
   7.250   10.15    6.35    1.02   0.000   0.200   0.000    0.00
   7.300   10.39    2.44    0.58   0.000   0.200   0.000    0.00
   7.350   10.63    2.46    0.39   0.000   0.200   0.000    0.00
   7.400   10.25    5.39    0.46   0.000   0.200   0.000    0.00
   7.450   10.39    9.71   -0.16   0.000   0.200   0.000    0.00
   7.500   10.54   10.62    0.39   0.000   0.200   0.000    0.00
   7.550   10.64   11.03    0.41   0.000   0.200   0.000    0.00
   7.600   10.68    9.84    0.53   0.000   0.200   0.000    0.00
   7.650   10.60    8.28    0.44   0.000   0.200   0.000    0.00
   7.700   10.52   10.07    0.00   0.000   0.200   0.000    0.00
   7.750   11.09   10.77   -0.11   0.000   0.200   0.000    0.00
   7.800   11.37    7.76   -0.18   0.000   0.200   0.000    0.00
   7.850   11.89    9.07   -0.57   0.000   0.200   0.000    0.00
   7.900   11.81    8.13   -0.68   0.000   0.200   0.000    0.00
   7.950   11.73   11.49   -0.32   0.000   0.200   0.000    0.00
   8.000   11.31   12.80   -0.17   0.000   0.200   0.000    0.00
   8.050   11.16   11.85   -0.43   0.000   0.200   0.000    0.00
   8.100   10.90   12.28   -0.44   0.000   0.200   0.000    0.00
   8.150   11.20   12.17   -0.49   0.000   0.200   0.000    0.00
   8.200   11.38   12.97   -0.36   0.000   0.200   0.000    0.00
   8.250   11.25   12.05   -0.37   0.000   0.200   0.000    0.00
   8.300   11.54    8.75   -0.62   0.000   0.200   0.000    0.00
   8.350   11.77    7.32   -0.69   0.000   0.200   0.000    0.00
   8.400   11.85   10.60   -1.15   0.000   0.200   0.000    0.00
   8.450   12.03   10.92   -1.35   0.000   0.200   0.000    0.00
   8.500   11.86   14.34   -1.37   0.000   0.200   0.000    0.00
   8.550   11.74   14.51   -1.62   0.000   0.200   0.000    0.00
   8.600   11.84   14.23   -1.45   0.000   0.200   0.000    0.00
   8.650   11.79   15.19   -1.44   0.000   0.200   0.000    0.00
   8.700   12.17   14.59   -1.23   0.000   0.200   0.000    0.00
   8.750   12.00   13.36   -1.29   0.000   0.200   0.000    0.00
   8.800   11.93   13.65   -0.90   0.000   0.200   0.000    0.00
   8.850   12.14   10.87   -0.52   0.000   0.200   0.000    0.00
   8.900   11.59    9.16   -0.35   0.000   0.200   0.000    0.00
   8.950   11.71   10.99    0.09   0.000   0.200   0.000    0.00
   9.000   11.94   11.26    0.16   0.000   0.200   0.000    0.00
   9.050   12.00   12.64    0.05   0.000   0.200   0.000    0.00
   9.100   11.63   12.97   -0.63   0.000   0.200   0.000    0.00
   9.150   11.73   13.02   -0.51   0.000   0.200   0.000    0.00
   9.200   11.88   10.24   -0.50   0.000   0.200   0.000    0.00
   9.250   11.74    9.66   -0.67   0.000   0.200   0.000    0.00
   9.300   11.53    8.08   -0.86   0.000   0.200   0.000    0.00
   9.350   11.40    5.47   -0.42   0.000   0.200   0.000    0.00
   9.400   11.58    4.84   -0.44   0.000   0.200   0.000    0.00
   9.450   11.61    4.83   -0.08   0.000   0.200   0.000    0.00
   9.500   11.65    4.53   -0.05   0.000   0.200   0.000    0.00
   9.550   11.51    5.57    0.09   0.000   0.200   0.000    0.00
   9.600   11.56    6.09   -0.06   0.000   0.200   0.000    0.00
   9.650   12.17    7.81   -0.01   0.000   0.200   0.000    0.00
   9.700   12.05    7.37    0.11   0.000   0.200   0.000    0.00
   9.750   12.00    8.37   -0.41   0.000   0.200   0.000    0.00
   9.800   11.80    8.13   -0.90   0.000   0.200   0.000    0.00
   9.850   11.78    8.68   -0.66   0.000   0.200   0.000    0.00
   9.900   11.89    9.08   -0.72   0.000   0.200   0.000    0.00
   9.950   11.42   10.38   -0.87   0.000   0.200   0.000    0.00
  10.000   11.61    9.24   -1.05   0.000   0.200   0.000    0.00
  10.050   11.22    8.01   -1.16   0.000   0.200   0.000    0.00
  10.100   11.77    9.26   -0.82   0.000   0.200   0.000    0.00
  10.150   11.55    8.68   -0.37   0.000   0.200   0.000    0.00
  10.200   11.07    5.71   -0.13   0.000   0.200   0.000    0.00
  10.250   11.14    3.76   -0.04   0.000   0.200   0.000    0.00
  10.300   11.23    5.61   -0.24   0.000   0.200   0.000    0.00
  10.350   11.12    8.23   -0.36   0.000   0.200   0.000    0.00
  10.400   11.55    7.45   -0.05   0.000   0.200   0.000    0.00
  10.450   11.70    9.71    0.23   0.000   0.200   0.000    0.00
  10.500   12.83   10.89    0.41   0.000   0.200   0.000    0.00
  10.550   12.79    9.55    0.46   0.000   0.200   0.000    0.00
  10.600   12.37    6.98    0.28   0.000   0.200   0.000    0.00
  10.650   11.99    6.85    0.47   0.000   0.200   0.000    0.00
  10.700   11.85    8.44    0.45   0.000   0.200   0.000    0.00
  10.750   11.96   10.20    0.07   0.000   0.200   0.000    0.00
  10.800   11.97   10.21    0.29   0.000   0.200   0.000    0.00
  10.850   12.11   10.27    0.49   0.000   0.200   0.000    0.00
  10.900   12.38    8.81    0.32   0.000   0.200   0.000    0.00
  10.950   12.63    8.34    0.08   0.000   0.200   0.000    0.00
  11.000   12.35    9.64   -0.03   0.000   0.200   0.000    0.00
  11.050   12.40    8.38   -0.46   0.000   0.200   0.000    0.00
  11.100   12.65    7.12   -0.12   0.000   0.200   0.000    0.00
  11.150   12.77    6.62   -0.27   0.000   0.200   0.000    0.00
  11.200   12.77    8.65   -0.42   0.000   0.200   0.000    0.00
  11.250   12.95    7.36   -0.32   0.000   0.200   0.000    0.00
  11.300   12.98    8.59    0.04   0.000   0.200   0.000    0.00
  11.350   13.30    7.52   -0.13   0.000   0.200   0.000    0.00
  11.400   13.06    8.09    0.22   0.000   0.200   0.000    0.00
  11.450   12.54    9.23    0.04   0.000   0.200   0.000    0.00
  11.500   12.42    7.16    0.13   0.000   0.200   0.000    0.00
  11.550   12.18    8.73    0.15   0.000   0.200   0.000    0.00
  11.600   11.91    7.62   -0.11   0.000   0.200   0.000    0.00
  11.650   11.80    9.18   -0.19   0.000   0.200   0.000    0.00
  11.700   11.71   10.86   -0.09   0.000   0.200   0.000    0.00
  11.750   11.59   11.57   -0.30   0.000   0.200   0.000    0.00
  11.800   11.29    9.22   -0.79   0.000   0.200   0.000    0.00
  11.850   11.18    6.58   -0.80   0.000   0.200   0.000    0.00
  11.900   11.55    4.98   -0.83   0.000   0.200   0.000    0.00
  11.950   11.71    7.14   -0.37   0.000   0.200   0.000    0.00
  12.000   11.64    8.52    0.02   0.000   0.200   0.000    0.00
  12.050   11.31    6.77   -0.82   0.000   0.200   0.000    0.00
  12.100   11.11    8.86   -0.85   0.000   0.200   0.000    0.00
  12.150   10.76    8.98   -0.63   0.000   0.200   0.000    0.00
  12.200   10.47   10.06   -0.32   0.000   0.200   0.000    0.00
  12.250   10.42    6.17   -0.26   0.000   0.200   0.000    0.00
  12.300   10.38    7.06   -0.19   0.000   0.200   0.000    0.00
  12.350   10.67    8.64   -0.09   0.000   0.200   0.000    0.00
  12.400   10.84    6.84   -0.04   0.000   0.200   0.000    0.00
  12.450   11.02    6.85    0.21   0.000   0.200   0.000    0.00
  12.500   11.33    5.69   -0.29   0.000   0.200   0.000    0.00
  12.550   11.59    4.31   -0.25   0.000   0.200   0.000    0.00
  12.600   11.81    4.63   -0.44   0.000   0.200   0.000    0.00
  12.650   11.82    3.52   -0.26   0.000   0.200   0.000    0.00
  12.700   11.55    3.55   -0.40   0.000   0.200   0.000    0.00
  12.750   11.13    5.30   -0.15   0.000   0.200   0.000    0.00
  12.800   10.86    6.79   -0.51   0.000   0.200   0.000    0.00
  12.850   10.72    7.85   -0.26   0.000   0.200   0.000    0.00
  12.900   10.62    8.64   -0.16   0.000   0.200   0.000    0.00
  12.950   10.81    9.24   -0.09   0.000   0.200   0.000    0.00
  13.000   10.89   10.24   -0.16   0.000   0.200   0.000    0.00
  13.050   10.66    9.62   -0.28   0.000   0.200   0.000    0.00
  13.100   10.83    7.31   -0.21   0.000   0.200   0.000    0.00
  13.150   10.65    5.70   -0.05   0.000   0.200   0.000    0.00
  13.200   10.27    6.88    0.14   0.000   0.200   0.000    0.00
  13.250   10.33    5.26   -0.03   0.000   0.200   0.000    0.00
  13.300   10.43    5.79    0.21   0.000   0.200   0.000    0.00
  13.350   10.34    4.10    0.46   0.000   0.200   0.000    0.00
  13.400   10.20    3.13    0.62   0.000   0.200   0.000    0.00
  13.450    9.86    4.52    0.98   0.000   0.200   0.000    0.00
  13.500   10.02    2.87    0.51   0.000   0.200   0.000    0.00
  13.550   10.20    1.01    0.30   0.000   0.200   0.000    0.00
  13.600    9.68    1.71    0.84   0.000   0.200   0.000    0.00
  13.650    9.88    1.44    0.86   0.000   0.200   0.000    0.00
  13.700    9.85    0.08    0.75   0.000   0.200   0.000    0.00
  13.750   10.21    0.45    0.37   0.000   0.200   0.000    0.00
  13.800   10.19    1.53    0.12   0.000   0.200   0.000    0.00
  13.850   10.26    3.27    0.21   0.000   0.200   0.000    0.00
  13.900   10.28    1.72   -0.26   0.000   0.200   0.000    0.00
  13.950   10.29    2.07   -1.00   0.000   0.200   0.000    0.00
  14.000   10.48    2.45   -1.00   0.000   0.200   0.000    0.00
  14.050   10.78    1.76   -1.25   0.000   0.200   0.000    0.00
  14.100   11.35    0.13   -0.81   0.000   0.200   0.000    0.00
  14.150   11.30    3.92   -0.23   0.000   0.200   0.000    0.00
  14.200   11.09    3.71   -0.25   0.000   0.200   0.000    0.00
  14.250   10.79    4.43   -0.22   0.000   0.200   0.000    0.00
  14.300   10.58    6.79   -0.05   0.000   0.200   0.000    0.00
  14.350   10.45    4.05   -0.33   0.000   0.200   0.000    0.00
  14.400   10.25    3.56   -0.41   0.000   0.200   0.000    0.00
  14.450    9.93    2.77   -0.26   0.000   0.200   0.000    0.00
  14.500   10.19    4.53    0.15   0.000   0.200   0.000    0.00
  14.550   10.31    4.68   -0.17   0.000   0.200   0.000    0.00
  14.600   10.16    3.61   -0.01   0.000   0.200   0.000    0.00
  14.650    9.92    3.16   -0.24   0.000   0.200   0.000    0.00
  14.700   10.37    2.81   -0.12   0.000   0.200   0.000    0.00
  14.750   10.18    1.78    0.19   0.000   0.200   0.000    0.00
  14.800   10.45    0.88    0.12   0.000   0.200   0.000    0.00
  14.850   10.72    2.45   -0.05   0.000   0.200   0.000    0.00
  14.900   10.49   -0.71    0.14   0.000   0.200   0.000    0.00
  14.950   10.71    1.24    0.10   0.000   0.200   0.000    0.00
  15.000   10.69    2.23    0.13   0.000   0.200   0.000    0.00
  15.050   10.74    1.21   -0.57   0.000   0.200   0.000    0.00
  15.100   10.97    3.81   -0.78   0.000   0.200   0.000    0.00
  15.150   10.98    4.98   -0.80   0.000   0.200   0.000    0.00
  15.200   10.93    5.59   -0.94   0.000   0.200   0.000    0.00
  15.250   10.87    6.18   -1.30   0.000   0.200   0.000    0.00
  15.300   11.15    3.85   -0.91   0.000   0.200   0.000    0.00
  15.350   11.25    2.57   -0.53   0.000   0.200   0.000    0.00
  15.400   11.29    4.35    0.02   0.000   0.200   0.000    0.00
  15.450   11.51    5.45    0.10   0.000   0.200   0.000    0.00
  15.500   11.82    6.24    0.06   0.000   0.200   0.000    0.00
  15.550   11.85    5.11   -0.17   0.000   0.200   0.000    0.00
  15.600   12.10    3.69   -0.69   0.000   0.200   0.000    0.00
  15.650   12.30    1.62   -0.74   0.000   0.200   0.000    0.00
  15.700   11.35    2.75   -0.94   0.000   0.200   0.000    0.00
  15.750   11.12    2.46   -0.96   0.000   0.200   0.000    0.00
  15.800   11.00   -1.17   -1.28   0.000   0.200   0.000    0.00
  15.850   11.00   -1.23   -1.31   0.000   0.200   0.000    0.00
  15.900   11.11   -2.65   -1.05   0.000   0.200   0.000    0.00
  15.950   10.76   -2.79   -1.36   0.000   0.200   0.000    0.00
  16.000   10.59   -3.84   -1.32   0.000   0.200   0.000    0.00
  16.050   10.64   -1.16   -1.53   0.000   0.200   0.000    0.00
  16.100   10.65   -1.43   -1.94   0.000   0.200   0.000    0.00
  16.150   10.76   -1.36   -1.91   0.000   0.200   0.000    0.00
  16.200   11.26   -2.49   -1.38   0.000   0.200   0.000    0.00
  16.250   11.37   -2.90   -1.29   0.000   0.200   0.000    0.00
  16.300   11.09   -4.28   -1.64   0.000   0.200   0.000    0.00
  16.350   11.19   -2.50   -1.44   0.000   0.200   0.000    0.00
  16.400   11.35   -3.04   -1.35   0.000   0.200   0.000    0.00
  16.450   11.27   -3.45   -1.08   0.000   0.200   0.000    0.00
  16.500   11.68   -1.89   -0.38   0.000   0.200   0.000    0.00
  16.550   11.75   -5.14   -0.16   0.000   0.200   0.000    0.00
  16.600   11.84   -4.92   -0.42   0.000   0.200   0.000    0.00
  16.650   11.69   -4.31   -0.59   0.000   0.200   0.000    0.00
  16.700   11.82   -4.99   -0.62   0.000   0.200   0.000    0.00
  16.750   11.84   -6.34   -0.53   0.000   0.200   0.000    0.00
  16.800   11.73   -6.04   -0.29   0.000   0.200   0.000    0.00
  16.850   11.36   -6.99   -0.47   0.000   0.200   0.000    0.00
  16.900   10.77   -5.27   -0.01   0.000   0.200   0.000    0.00
  16.950   10.26   -5.87    0.26   0.000   0.200   0.000    0.00
  17.000   10.29   -4.80   -0.10   0.000   0.200   0.000    0.00
  17.050    9.74   -4.16   -0.18   0.000   0.200   0.000    0.00
  17.100    9.64   -5.45   -0.07   0.000   0.200   0.000    0.00
  17.150    9.66   -4.25    0.09   0.000   0.200   0.000    0.00
  17.200    9.30   -4.44    0.19   0.000   0.200   0.000    0.00
  17.250    9.09   -2.31   -0.25   0.000   0.200   0.000    0.00
  17.300    9.04   -1.32   -0.56   0.000   0.200   0.000    0.00
  17.350    9.45   -0.67   -0.69   0.000   0.200   0.000    0.00
  17.400    9.87   -0.14   -0.58   0.000   0.200   0.000    0.00
  17.450    9.65    1.73   -0.53   0.000   0.200   0.000    0.00
  17.500    9.73    0.94   -0.71   0.000   0.200   0.000    0.00
  17.550    9.51    5.69   -0.46   0.000   0.200   0.000    0.00
  17.600    9.36    5.66   -0.71   0.000   0.200   0.000    0.00
  17.650    9.55    2.49   -0.84   0.000   0.200   0.000    0.00
  17.700    9.61    3.62   -0.76   0.000   0.200   0.000    0.00
  17.750    9.38    3.44   -0.62   0.000   0.200   0.000    0.00
  17.800    9.46    2.76   -0.37   0.000   0.200   0.000    0.00
  17.850    9.45    3.40    0.08   0.000   0.200   0.000    0.00
  17.900    9.30    3.16   -0.10   0.000   0.200   0.000    0.00
  17.950    8.98   -0.40   -0.36   0.000   0.200   0.000    0.00
  18.000    8.94    1.08   -0.17   0.000   0.200   0.000    0.00
  18.050    9.44    2.19   -0.39   0.000   0.200   0.000    0.00
  18.100    9.32    0.05   -0.34   0.000   0.200   0.000    0.00
  18.150    8.97    0.22   -0.39   0.000   0.200   0.000    0.00
  18.200    8.91   -0.85   -0.58   0.000   0.200   0.000    0.00
  18.250    8.75    0.78   -0.56   0.000   0.200   0.000    0.00
  18.300    8.93   -1.84   -0.17   0.000   0.200   0.000    0.00
  18.350    9.28   -3.81   -0.02   0.000   0.200   0.000    0.00
  18.400    9.59   -3.94    0.46   0.000   0.200   0.000    0.00
  18.450    9.94   -3.72    0.41   0.000   0.200   0.000    0.00
  18.500   10.17   -2.16    0.07   0.000   0.200   0.000    0.00
  18.550   10.35    2.03    0.20   0.000   0.200   0.000    0.00
  18.600   10.06    4.05    0.15   0.000   0.200   0.000    0.00
  18.650   10.28    1.91    0.23   0.000   0.200   0.000    0.00
  18.700   10.01   -0.56    0.36   0.000   0.200   0.000    0.00
  18.750    9.98   -1.39    0.73   0.000   0.200   0.000    0.00
  18.800   10.28   -2.87    0.70   0.000   0.200   0.000    0.00
  18.850   10.44   -5.75    0.79   0.000   0.200   0.000    0.00
  18.900   10.14   -6.15    0.66   0.000   0.200   0.000    0.00
  18.950   10.61   -8.62    0.90   0.000   0.200   0.000    0.00
  19.000   10.67   -5.56    0.89   0.000   0.200   0.000    0.00
  19.050   11.26   -6.65    0.87   0.000   0.200   0.000    0.00
  19.100   11.07   -9.49    0.81   0.000   0.200   0.000    0.00
  19.150   10.68  -11.17    0.98   0.000   0.200   0.000    0.00
  19.200   10.68  -10.75    1.31   0.000   0.200   0.000    0.00
  19.250   10.25  -10.93    1.17   0.000   0.200   0.000    0.00
  19.300   10.40  -12.63    1.31   0.000   0.200   0.000    0.00
  19.350   10.19  -11.92    1.30   0.000   0.200   0.000    0.00
  19.400   10.34   -9.18    0.96   0.000   0.200   0.000    0.00
  19.450   10.28   -7.44    0.86   0.000   0.200   0.000    0.00
  19.500   10.14   -7.87    0.43   0.000   0.200   0.000    0.00
  19.550   10.01   -7.69    0.22   0.000   0.200   0.000    0.00
  19.600    9.75   -7.50    0.17   0.000   0.200   0.000    0.00
  19.650   10.19   -7.60    0.50   0.000   0.200   0.000    0.00
  19.700   10.14   -7.48    0.76   0.000   0.200   0.000    0.00
  19.750   10.36   -6.50    1.15   0.000   0.200   0.000    0.00
  19.800   10.46   -6.56    0.95   0.000   0.200   0.000    0.00
  19.850   10.34  -10.02    1.14   0.000   0.200   0.000    0.00
  19.900   10.16   -8.97    1.52   0.000   0.200   0.000    0.00
  19.950   10.34   -6.44    1.03   0.000   0.200   0.000    0.00
  20.000   10.08   -5.89    0.43   0.000   0.200   0.000    0.00
  20.050   10.00   -5.13    0.15   0.000   0.200   0.000    0.00
  20.100    9.63   -5.20    0.10   0.000   0.200   0.000    0.00
  20.150    9.60   -1.97    0.26   0.000   0.200   0.000    0.00
  20.200    9.60    0.41    0.08   0.000   0.200   0.000    0.00
  20.250    9.24    2.32    0.42   0.000   0.200   0.000    0.00
  20.300    8.98    3.89    0.24   0.000   0.200   0.000    0.00
  20.350    8.92    2.03    0.43   0.000   0.200   0.000    0.00
  20.400    9.19    2.13    0.60   0.000   0.200   0.000    0.00
  20.450    9.07    1.77    0.41   0.000   0.200   0.000    0.00
  20.500    9.15    1.87    0.65   0.000   0.200   0.000    0.00
  20.550    8.90    1.42    0.97   0.000   0.200   0.000    0.00
  20.600    8.79    5.20    0.85   0.000   0.200   0.000    0.00
  20.650    8.54    5.88    0.58   0.000   0.200   0.000    0.00
  20.700    8.41    5.16    0.97   0.000   0.200   0.000    0.00
  20.750    8.85    6.51    1.09   0.000   0.200   0.000    0.00
  20.800    8.72    5.25    1.31   0.000   0.200   0.000    0.00
  20.850    8.91    4.53    1.22   0.000   0.200   0.000    0.00
  20.900    9.24    4.03    1.16   0.000   0.200   0.000    0.00
  20.950    8.92    2.21    0.94   0.000   0.200   0.000    0.00
  21.000    9.02    0.05    1.16   0.000   0.200   0.000    0.00
  21.050    8.96   -1.11    1.26   0.000   0.200   0.000    0.00
  21.100    9.53    0.81    1.30   0.000   0.200   0.000    0.00
  21.150    9.47   -0.70    1.71   0.000   0.200   0.000    0.00
  21.200    9.80    0.09    1.87   0.000   0.200   0.000    0.00
  21.250   10.04    1.59    1.94   0.000   0.200   0.000    0.00
  21.300   10.08    4.02    1.81   0.000   0.200   0.000    0.00
  21.350    9.74    6.04    1.68   0.000   0.200   0.000    0.00
  21.400    9.86    6.59    1.72   0.000   0.200   0.000    0.00
  21.450    9.74    7.29    1.53   0.000   0.200   0.000    0.00
  21.500    9.30   11.28    1.71   0.000   0.200   0.000    0.00
  21.550    9.41   12.31    1.59   0.000   0.200   0.000    0.00
  21.600    9.52   11.28    2.46   0.000   0.200   0.000    0.00
  21.650    9.30   10.56    2.24   0.000   0.200   0.000    0.00
  21.700    9.23   10.11    2.15   0.000   0.200   0.000    0.00
  21.750    8.81    6.86    1.99   0.000   0.200   0.000    0.00
  21.800    8.85    1.94    1.90   0.000   0.200   0.000    0.00
  21.850    8.80   -1.07    2.49   0.000   0.200   0.000    0.00
  21.900    9.00   -0.69    2.29   0.000   0.200   0.000    0.00
  21.950    9.10    1.16    2.45   0.000   0.200   0.000    0.00
  22.000    9.10    1.57    2.23   0.000   0.200   0.000    0.00
  22.050    9.29    2.23    1.61   0.000   0.200   0.000    0.00
  22.100    9.20    2.48    2.03   0.000   0.200   0.000    0.00
  22.150    9.11    3.93    2.18   0.000   0.200   0.000    0.00
  22.200    8.95    2.63    2.16   0.000   0.200   0.000    0.00
  22.250    9.14    1.31    2.18   0.000   0.200   0.000    0.00
  22.300    9.18    0.80    2.04   0.000   0.200   0.000    0.00
  22.350    8.89    1.04    1.84   0.000   0.200   0.000    0.00