! This hub-height wind-speed file was generated by TurbSim (v1.06.00, 21-Sep-2012) on 03-Feb-2018 at 23:29:43.
!
! The requested statistics for this data were:
!    Mean Total Wind Speed =    7.000 m/s
!    Turbulence Intensity  =   21.700%
!
!   Time  HorSpd  WndDir  VerSpd  HorShr  VerShr  LnVShr  GstSpd
!  (sec)   (m/s)   (deg)   (m/s)     (-)     (-)     (-)   (m/s)
   0.000    7.56   -7.89    0.23   0.000   0.200   0.000    0.00
   0.050    7.63   -7.03    0.15   0.000   0.200   0.000    0.00
   0.100    7.72   -5.13    0.10   0.000   0.200   0.000    0.00
   0.150    7.43  -10.08    0.35   0.000   0.200   0.000    0.00
   0.200    7.30   -7.66    0.68   0.000   0.200   0.000    0.00
   0.250    7.26   -4.68    0.74   0.000   0.200   0.000    0.00
   0.300    7.37   -3.28    0.92   0.000   0.200   0.000    0.00
   0.350    7.20   -3.07    0.72   0.000   0.200   0.000    0.00
   0.400    7.35   -3.12    0.61   0.000   0.200   0.000    0.00
   0.450    7.71   -2.81    0.52   0.000   0.200   0.000    0.00
   0.500    7.75   -2.19    0.39   0.000   0.200   0.000    0.00
   0.550    7.66   -3.82    0.36   0.000   0.200   0.000    0.00
   0.600    7.33   -2.34    0.64   0.000   0.200   0.000    0.00
   0.650    7.52   -1.31    0.44   0.000   0.200   0.000    0.00
   0.700    7.49   -0.81    0.16   0.000   0.200   0.000    0.00
   0.750    7.61   -0.38   -0.02   0.000   0.200   0.000    0.00
   0.800    7.82   -0.72    0.11   0.000   0.200   0.000    0.00
   0.850    7.65    0.05    0.14   0.000   0.200   0.000    0.00
   0.900    7.70   -0.27    0.21   0.000   0.200   0.000    0.00
   0.950    7.41    2.31    0.60   0.000   0.200   0.000    0.00
   1.000    7.59    2.48    0.73   0.000   0.200   0.000    0.00
   1.050    7.67   -0.12    1.07   0.000   0.200   0.000    0.00
   1.100    7.81   -3.57    1.11   0.000   0.200   0.000    0.00
   1.150    7.92   -3.48    0.90   0.000   0.200   0.000    0.00
   1.200    7.62   -2.29    0.88   0.000   0.200   0.000    0.00
   1.250    7.54   -2.89    1.17   0.000   0.200   0.000    0.00
   1.300    7.65   -1.49    1.54   0.000   0.200   0.000    0.00
   1.350    7.86   -0.40    1.20   0.000   0.200   0.000    0.00
   1.400    7.84   -0.84    0.91   0.000   0.200   0.000    0.00
   1.450    7.80    3.83    0.44   0.000   0.200   0.000    0.00
   1.500    7.74    5.52    0.75   0.000   0.200   0.000    0.00
   1.550    7.68    1.82    0.90   0.000   0.200   0.000    0.00
   1.600    7.78    2.25    0.74   0.000   0.200   0.000    0.00
   1.650    7.79    6.81    0.63   0.000   0.200   0.000    0.00
   1.700    7.85    2.35    0.62   0.000   0.200   0.000    0.00
   1.750    7.87    3.61    0.35   0.000   0.200   0.000    0.00
   1.800    7.73    3.67    0.37   0.000   0.200   0.000    0.00
   1.850    8.33    4.48    0.62   0.000   0.200   0.000    0.00
   1.900    8.36    4.62    0.88   0.000   0.200   0.000    0.00
   1.950    8.26    3.02    1.05   0.000   0.200   0.000    0.00
   2.000    8.30    2.85    1.35   0.000   0.200   0.000    0.00
   2.050    8.48    1.92    1.60   0.000   0.200   0.000    0.00
   2.100    8.18   -1.26    1.64   0.000   0.200   0.000    0.00
   2.150    8.05   -0.96    1.70   0.000   0.200   0.000    0.00
   2.200    8.05   -2.61    1.23   0.000   0.200   0.000    0.00
   2.250    8.37   -3.88    1.54   0.000   0.200   0.000    0.00
   2.300    8.00   -4.66    1.59   0.000   0.200   0.000    0.00
   2.350    8.00   -7.54    1.46   0.000   0.200   0.000    0.00
   2.400    8.13   -5.97    1.48   0.000   0.200   0.000    0.00
   2.450    8.38   -4.30    1.91   0.000   0.200   0.000    0.00
   2.500    8.08   -1.92    1.84   0.000   0.200   0.000    0.00
   2.550    8.20    0.30    1.97   0.000   0.200   0.000    0.00
   2.600    7.80   -0.02    1.92   0.000   0.200   0.000    0.00
   2.650    7.62   -1.36    1.86   0.000   0.200   0.000    0.00
   2.700    7.62   -5.38    1.37   0.000   0.200   0.000    0.00
   2.750    7.65   -5.50    1.61   0.000   0.200   0.000    0.00
   2.800    7.58   -5.18    1.52   0.000   0.200   0.000    0.00
   2.850    7.80   -2.99    1.61   0.000   0.200   0.000    0.00
   2.900    7.90   -3.91    1.45   0.000   0.200   0.000    0.00
   2.950    7.93   -3.16    1.13   0.000   0.200   0.000    0.00
   3.000    7.74   -3.01    1.65   0.000   0.200   0.000    0.00
   3.050    7.77   -3.90    1.43   0.000   0.200   0.000    0.00
   3.100    7.69   -2.78    1.53   0.000   0.200   0.000    0.00
   3.150    7.65   -3.97    1.57   0.000   0.200   0.000    0.00
   3.200    7.59   -5.24    1.48   0.000   0.200   0.000    0.00
   3.250    7.76   -5.27    1.21   0.000   0.200   0.000    0.00
   3.300    7.63   -5.16    1.30   0.000   0.200   0.000    0.00
   3.350    8.16   -4.71    1.94   0.000   0.200   0.000    0.00
   3.400    8.17  -10.60    2.05   0.000   0.200   0.000    0.00
   3.450    8.35  -10.70    1.90   0.000   0.200   0.000    0.00
   3.500    8.48   -9.97    1.95   0.000   0.200   0.000    0.00
   3.550    8.19   -8.87    2.14   0.000   0.200   0.000    0.00
   3.600    8.11   -4.45    1.86   0.000   0.200   0.000    0.00
   3.650    8.08   -5.97    1.72   0.000   0.200   0.000    0.00
   3.700    7.94   -9.31    1.79   0.000   0.200   0.000    0.00
   3.750    8.02   -9.79    1.55   0.000   0.200   0.000    0.00
   3.800    8.15  -11.53    1.48   0.000   0.200   0.000    0.00
   3.850    8.03  -10.55    1.54   0.000   0.200   0.000    0.00
   3.900    7.99  -10.74    1.94   0.000   0.200   0.000    0.00
   3.950    7.71   -8.23    1.97   0.000   0.200   0.000    0.00
   4.000    7.58   -7.63    2.04   0.000   0.200   0.000    0.00
   4.050    7.47   -7.56    2.05   0.000   0.200   0.000    0.00
   4.100    7.47   -7.17    1.94   0.000   0.200   0.000    0.00
   4.150    7.41   -6.85    1.76   0.000   0.200   0.000    0.00
   4.200    7.99   -5.11    1.78   0.000   0.200   0.000    0.00
   4.250    8.36   -4.65    1.82   0.000   0.200   0.000    0.00
   4.300    8.26   -6.28    1.52   0.000   0.200   0.000    0.00
   4.350    8.11   -6.41    1.20   0.000   0.200   0.000    0.00
   4.400    8.25   -5.82    1.07   0.000   0.200   0.000    0.00
   4.450    8.33   -2.39    1.12   0.000   0.200   0.000    0.00
   4.500    8.45   -2.14    1.01   0.000   0.200   0.000    0.00
   4.550    8.62   -3.40    0.85   0.000   0.200   0.000    0.00
   4.600    8.48   -6.33    0.69   0.000   0.200   0.000    0.00
   4.650    8.05   -5.58    0.80   0.000   0.200   0.000    0.00
   4.700    8.11   -6.45    0.85   0.000   0.200   0.000    0.00
   4.750    8.58   -9.93    0.82   0.000   0.200   0.000    0.00
   4.800    8.38   -8.71    0.55   0.000   0.200   0.000    0.00
   4.850    8.02   -9.57    0.78   0.000   0.200   0.000    0.00
   4.900    7.96   -9.21    0.79   0.000   0.200   0.000    0.00
   4.950    8.20  -10.73    0.63   0.000   0.200   0.000    0.00
   5.000    8.05  -12.78    0.76   0.000   0.200   0.000    0.00
   5.050    8.38  -14.65    0.68   0.000   0.200   0.000    0.00
   5.100    8.32  -14.51    0.64   0.000   0.200   0.000    0.00
   5.150    8.26  -12.02    0.45   0.000   0.200   0.000    0.00
   5.200    8.27  -12.57    0.26   0.000   0.200   0.000    0.00
   5.250    8.11  -12.83    0.55   0.000   0.200   0.000    0.00
   5.300    8.11  -13.37    0.82   0.000   0.200   0.000    0.00
   5.350    8.30  -16.38    1.05   0.000   0.200   0.000    0.00
   5.400    8.43  -13.15    1.14   0.000   0.200   0.000    0.00
   5.450    8.13  -14.19    1.29   0.000   0.200   0.000    0.00
   5.500    7.89  -15.97    1.35   0.000   0.200   0.000    0.00
   5.550    7.70  -16.60    0.97   0.000   0.200   0.000    0.00
   5.600    7.69  -16.29    0.24   0.000   0.200   0.000    0.00
   5.650    7.71  -13.59    0.21   0.000   0.200   0.000    0.00
   5.700    7.54   -9.30    0.13   0.000   0.200   0.000    0.00
   5.750    7.48   -8.22   -0.17   0.000   0.200   0.000    0.00
   5.800    7.30   -6.81    0.16   0.000   0.200   0.000    0.00
   5.850    7.35   -8.78    0.28   0.000   0.200   0.000    0.00
   5.900    7.70   -9.43    0.19   0.000   0.200   0.000    0.00
   5.950    7.67   -9.93    0.13   0.000   0.200   0.000    0.00
   6.000    7.96  -11.06   -0.15   0.000   0.200   0.000    0.00
   6.050    7.98  -11.08    0.11   0.000   0.200   0.000    0.00
   6.100    8.03   -8.79    0.19   0.000   0.200   0.000    0.00
   6.150    7.92   -8.74    0.46   0.000   0.200   0.000    0.00
   6.200    7.91   -8.26    0.87   0.000   0.200   0.000    0.00
   6.250    7.77   -8.88    0.95   0.000   0.200   0.000    0.00
   6.300    7.59   -9.77    0.82   0.000   0.200   0.000    0.00
   6.350    8.01  -10.22    0.40   0.000   0.200   0.000    0.00
   6.400    7.95   -9.60    0.25   0.000   0.200   0.000    0.00
   6.450    8.06   -9.07    0.45   0.000   0.200   0.000    0.00
   6.500    8.30   -9.68    0.04   0.000   0.200   0.000    0.00
   6.550    7.98  -11.89   -0.16   0.000   0.200   0.000    0.00
   6.600    7.97  -10.63   -0.25   0.000   0.200   0.000    0.00
   6.650    8.03  -10.33   -0.53   0.000   0.200   0.000    0.00
   6.700    8.19   -8.15   -0.82   0.000   0.200   0.000    0.00
   6.750    8.13   -7.61   -0.68   0.000   0.200   0.000    0.00
   6.800    8.19  -11.48    0.01   0.000   0.200   0.000    0.00
   6.850    8.13   -9.52   -0.31   0.000   0.200   0.000    0.00
   6.900    8.04   -9.41   -0.06   0.000   0.200   0.000    0.00
   6.950    7.75   -7.34   -0.22   0.000   0.200   0.000    0.00
   7.000    8.27   -7.33   -0.07   0.000   0.200   0.000    0.00
   7.050    8.39   -5.99   -0.24   0.000   0.200   0.000    0.00
   7.100    8.03   -6.71   -0.26   0.000   0.200   0.000    0.00
   7.150    8.34   -3.65   -0.01   0.000   0.200   0.000    0.00
   7.200    8.64   -4.31   -0.11   0.000   0.200   0.000    0.00
   7.250    8.64   -4.20    0.00   0.000   0.200   0.000    0.00
   7.300    8.73   -3.06   -0.15   0.000   0.200   0.000    0.00
   7.350    8.63   -3.26   -0.10   0.000   0.200   0.000    0.00
   7.400    8.94   -4.86   -0.17   0.000   0.200   0.000    0.00
   7.450    8.69   -6.03   -0.48   0.000   0.200   0.000    0.00
   7.500    9.05   -7.55   -0.34   0.000   0.200   0.000    0.00
   7.550    9.11   -6.22   -0.29   0.000   0.200   0.000    0.00
   7.600    9.13   -6.69   -0.37   0.000   0.200   0.000    0.00
   7.650    9.48   -6.00   -0.06   0.000   0.200   0.000    0.00
   7.700    9.44   -3.99   -0.21   0.000   0.200   0.000    0.00
   7.750    9.48   -3.65   -0.01   0.000   0.200   0.000    0.00
   7.800    9.41   -5.06   -0.21   0.000   0.200   0.000    0.00
   7.850    9.36   -5.13   -0.59   0.000   0.200   0.000    0.00
   7.900    9.62   -4.97   -0.32   0.000   0.200   0.000    0.00
   7.950    9.56   -4.16   -0.42   0.000   0.200   0.000    0.00
   8.000    9.18   -2.38   -0.55   0.000   0.200   0.000    0.00
   8.050    9.38   -2.15   -0.61   0.000   0.200   0.000    0.00
   8.100    9.38   -2.45   -0.83   0.000   0.200   0.000    0.00
   8.150    9.18   -3.64   -0.55   0.000   0.200   0.000    0.00
   8.200    9.04   -2.48   -0.64   0.000   0.200   0.000    0.00
   8.250    9.05   -3.40   -0.56   0.000   0.200   0.000    0.00
   8.300    9.07   -1.87   -0.73   0.000   0.200   0.000    0.00
   8.350    9.25   -2.49   -0.85   0.000   0.200   0.000    0.00
   8.400    9.24   -0.44   -0.66   0.000   0.200   0.000    0.00
   8.450    9.06   -0.96   -0.51   0.000   0.200   0.000    0.00
   8.500    8.95   -0.17   -0.48   0.000   0.200   0.000    0.00
   8.550    9.12    2.53   -0.11   0.000   0.200   0.000    0.00
   8.600    9.07    2.81   -0.37   0.000   0.200   0.000    0.00
   8.650    8.97    3.30   -0.47   0.000   0.200   0.000    0.00
   8.700    9.05    4.12    0.04   0.000   0.200   0.000    0.00
   8.750    9.08    4.67   -0.11   0.000   0.200   0.000    0.00
   8.800    9.32    3.80   -0.05   0.000   0.200   0.000    0.00
   8.850    9.24    3.79   -0.12   0.000   0.200   0.000    0.00
   8.900    9.14    1.48   -0.41   0.000   0.200   0.000    0.00
   8.950    9.14   -0.27   -0.10   0.000   0.200   0.000    0.00
   9.000    9.27   -1.11   -0.02   0.000   0.200   0.000    0.00
   9.050    9.06   -1.87   -0.15   0.000   0.200   0.000    0.00
   9.100    9.47   -1.37   -0.62   0.000   0.200   0.000    0.00
   9.150    9.57   -1.29   -0.31   0.000   0.200   0.000    0.00
   9.200    9.38    0.26    0.33   0.000   0.200   0.000    0.00
   9.250    9.03    0.73    0.05   0.000   0.200   0.000    0.00
   9.300    9.63    0.76    0.08   0.000   0.200   0.000    0.00
   9.350    9.66    3.13   -0.24   0.000   0.200   0.000    0.00
   9.400    9.66    4.28   -0.47   0.000   0.200   0.000    0.00
   9.450    9.56    5.73   -0.60   0.000   0.200   0.000    0.00
   9.500    9.52    7.19   -0.63   0.000   0.200   0.000    0.00
   9.550    9.32    9.09   -0.10   0.000   0.200   0.000    0.00
   9.600    9.33    7.60   -0.17   0.000   0.200   0.000    0.00
   9.650    9.31   12.10   -0.37   0.000   0.200   0.000    0.00
   9.700    9.58   13.04   -0.31   0.000   0.200   0.000    0.00
   9.750    9.48   11.03   -0.27   0.000   0.200   0.000    0.00
   9.800    9.22   11.11   -0.07   0.000   0.200   0.000    0.00
   9.850    9.17   12.74   -0.36   0.000   0.200   0.000    0.00
   9.900    9.22   12.18   -0.45   0.000   0.200   0.000    0.00
   9.950    9.41    9.36   -0.26   0.000   0.200   0.000    0.00
  10.000    9.27   10.88   -0.22   0.000   0.200   0.000    0.00
  10.050    9.32   10.22   -0.22   0.000   0.200   0.000    0.00
  10.100    9.62    7.54    0.20   0.000   0.200   0.000    0.00
  10.150    9.89    8.04   -0.06   0.000   0.200   0.000    0.00
  10.200    9.65    5.12   -0.25   0.000   0.200   0.000    0.00
  10.250    9.95    6.21   -0.24   0.000   0.200   0.000    0.00
  10.300    9.84    4.27   -0.33   0.000   0.200   0.000    0.00
  10.350    9.56    2.60   -0.28   0.000   0.200   0.000    0.00
  10.400    9.29    5.17   -0.14   0.000   0.200   0.000    0.00
  10.450    9.37    4.58    0.21   0.000   0.200   0.000    0.00
  10.500    9.55    5.10    0.30   0.000   0.200   0.000    0.00
  10.550    9.66    6.41    0.62   0.000   0.200   0.000    0.00
  10.600    9.77    7.15    0.48   0.000   0.200   0.000    0.00
  10.650    9.75    6.66    0.77   0.000   0.200   0.000    0.00
  10.700    9.55    5.27    0.24   0.000   0.200   0.000    0.00
  10.750    9.52    5.88    0.60   0.000   0.200   0.000    0.00
  10.800    9.17    5.15    0.04   0.000   0.200   0.000    0.00
  10.850    9.22    6.06   -0.14   0.000   0.200   0.000    0.00
  10.900    9.41    8.29    0.07   0.000   0.200   0.000    0.00
  10.950    9.25    6.14    0.26   0.000   0.200   0.000    0.00
  11.000    9.15    7.77    0.58   0.000   0.200   0.000    0.00
  11.050    9.42    8.11    0.56   0.000   0.200   0.000    0.00
  11.100    9.76    7.93    0.39   0.000   0.200   0.000    0.00
  11.150    9.80   10.01    0.68   0.000   0.200   0.000    0.00
  11.200    9.53   10.75    0.48   0.000   0.200   0.000    0.00
  11.250    9.42   12.39    0.25   0.000   0.200   0.000    0.00
  11.300    9.51   13.91    0.36   0.000   0.200   0.000    0.00
  11.350    9.58   14.15    0.07   0.000   0.200   0.000    0.00
  11.400    9.82   11.22   -0.24   0.000   0.200   0.000    0.00
  11.450    9.49   10.72   -0.01   0.000   0.200   0.000    0.00
  11.500    9.25   13.02    0.26   0.000   0.200   0.000    0.00
  11.550    9.23   12.35    0.22   0.000   0.200   0.000    0.00
  11.600    9.44    9.24   -0.01   0.000   0.200   0.000    0.00
  11.650    9.39   11.36    0.26   0.000   0.200   0.000    0.00
  11.700    8.89   11.67    0.21   0.000   0.200   0.000    0.00
  11.750    9.24   10.04    0.41   0.000   0.200   0.000    0.00
  11.800    9.21    7.33    0.32   0.000   0.200   0.000    0.00
  11.850    9.46    6.02    0.19   0.000   0.200   0.000    0.00
  11.900    9.52    6.33    0.16   0.000   0.200   0.000    0.00
  11.950    9.51    8.59    0.59   0.000   0.200   0.000    0.00
  12.000    9.29    9.35    0.20   0.000   0.200   0.000    0.00
  12.050    9.07   10.08    0.48   0.000   0.200   0.000    0.00
  12.100    9.21   10.20    0.27   0.000   0.200   0.000    0.00
  12.150    9.25    9.51    0.17   0.000   0.200   0.000    0.00
  12.200    9.34    8.87    0.20   0.000   0.200   0.000    0.00
  12.250    9.14    4.96    0.44   0.000   0.200   0.000    0.00
  12.300    9.05    7.23    0.15   0.000   0.200   0.000    0.00
  12.350    8.73    6.98    0.24   0.000   0.200   0.000    0.00
  12.400    8.79    6.16    0.30   0.000   0.200   0.000    0.00
  12.450    9.16    4.46    0.00   0.000   0.200   0.000    0.00
  12.500    9.13    3.55    0.02   0.000   0.200   0.000    0.00
  12.550    9.25    1.55    0.37   0.000   0.200   0.000    0.00
  12.600    9.05   -0.34    0.59   0.000   0.200   0.000    0.00
  12.650    8.99   -1.05    0.53   0.000   0.200   0.000    0.00
  12.700    9.10   -1.41    0.94   0.000   0.200   0.000    0.00
  12.750    8.82    0.38    0.75   0.000   0.200   0.000    0.00
  12.800    9.09   -4.29    0.42   0.000   0.200   0.000    0.00
  12.850    9.07   -5.34    0.89   0.000   0.200   0.000    0.00
  12.900    9.18   -6.87    0.84   0.000   0.200   0.000    0.00
  12.950    9.43   -8.04    0.56   0.000   0.200   0.000    0.00
  13.000    9.50   -9.18    0.52   0.000   0.200   0.000    0.00
  13.050    9.39   -5.42    0.29   0.000   0.200   0.000    0.00
  13.100    9.16   -5.64    0.16   0.000   0.200   0.000    0.00
  13.150    9.22   -5.48    0.11   0.000   0.200   0.000    0.00
  13.200    9.38   -5.55   -0.40   0.000   0.200   0.000    0.00
  13.250    9.37   -5.42   -0.06   0.000   0.200   0.000    0.00
  13.300    9.20   -5.44   -0.12   0.000   0.200   0.000    0.00
  13.350    9.68   -3.28   -0.06   0.000   0.200   0.000    0.00
  13.400    9.49   -3.26   -0.15   0.000   0.200   0.000    0.00
  13.450    9.53   -4.18   -0.21   0.000   0.200   0.000    0.00
  13.500    9.33   -2.66   -0.35   0.000   0.200   0.000    0.00
  13.550    8.96   -2.34   -0.11   0.000   0.200   0.000    0.00
  13.600    9.15   -1.88    0.12   0.000   0.200   0.000    0.00
  13.650    9.10   -4.26    0.52   0.000   0.200   0.000    0.00
  13.700    9.45   -2.01    0.40   0.000   0.200   0.000    0.00
  13.750    9.19   -0.22    0.22   0.000   0.200   0.000    0.00
  13.800    9.10    0.62    0.28   0.000   0.200   0.000    0.00
  13.850    9.05   -0.13    0.08   0.000   0.200   0.000    0.00
  13.900    8.75    1.24    0.07   0.000   0.200   0.000    0.00
  13.950    8.72    1.17    0.21   0.000   0.200   0.000    0.00
  14.000    8.70   -0.14    0.33   0.000   0.200   0.000    0.00
  14.050    8.36    1.45    0.54   0.000   0.200   0.000    0.00
  14.100    8.66   -0.40    0.02   0.000   0.200   0.000    0.00
  14.150    8.67   -4.68   -0.18   0.000   0.200   0.000    0.00
  14.200    8.46   -6.21   -0.11   0.000   0.200   0.000    0.00
  14.250    8.29   -3.53   -0.07   0.000   0.200   0.000    0.00
  14.300    8.50   -2.92   -0.32   0.000   0.200   0.000    0.00
  14.350    8.47    0.92   -0.04   0.000   0.200   0.000    0.00
  14.400    8.48    1.71    0.01   0.000   0.200   0.000    0.00
  14.450    8.31    3.30    0.34   0.000   0.200   0.000    0.00
  14.500    8.40    4.12    0.07   0.000   0.200   0.000    0.00
  14.550    8.46    2.59   -0.20   0.000   0.200   0.000    0.00
  14.600    7.99    3.41   -0.25   0.000   0.200   0.000    0.00
  14.650    7.68    3.27    0.09   0.000   0.200   0.000    0.00
  14.700    8.03    6.09    0.14   0.000   0.200   0.000    0.00
  14.750    8.13    5.57    0.05   0.000   0.200   0.000    0.00
  14.800    8.09    6.70   -0.22   0.000   0.200   0.000    0.00
  14.850    8.07    8.11   -0.08   0.000   0.200   0.000    0.00
  14.900    7.52    9.40    0.17   0.000   0.200   0.000    0.00
  14.950    7.36    8.98    0.20   0.000   0.200   0.000    0.00
  15.000    7.08    5.46   -0.09   0.000   0.200   0.000    0.00
  15.050    7.23    6.97   -0.10   0.000   0.200   0.000    0.00
  15.100    7.38    7.41   -0.10   0.000   0.200   0.000    0.00
  15.150    7.68    4.76   -0.26   0.000   0.200   0.000    0.00
  15.200    7.67    7.91   -0.23   0.000   0.200   0.000    0.00
  15.250    7.50    7.98   -0.26   0.000   0.200   0.000    0.00
  15.300    7.65    7.97   -0.21   0.000   0.200   0.000    0.00
  15.350    7.31    9.01   -0.23   0.000   0.200   0.000    0.00
  15.400    7.59    9.16   -0.13   0.000   0.200   0.000    0.00
  15.450    7.51    8.71    0.09   0.000   0.200   0.000    0.00
  15.500    7.43   10.26    0.16   0.000   0.200   0.000    0.00
  15.550    7.22    5.81    0.10   0.000   0.200   0.000    0.00
  15.600    7.17    5.60    0.05   0.000   0.200   0.000    0.00
  15.650    7.04    4.39   -0.29   0.000   0.200   0.000    0.00
  15.700    7.12    7.10    0.18   0.000   0.200   0.000    0.00
  15.750    7.41    7.12    0.14   0.000   0.200   0.000    0.00
  15.800    7.27    5.63    0.47   0.000   0.200   0.000    0.00
  15.850    7.15    8.00    0.63   0.000   0.200   0.000    0.00
  15.900    7.16    7.10    0.18   0.000   0.200   0.000    0.00
  15.950    7.19    7.69   -0.12   0.000   0.200   0.000    0.00
  16.000    7.22    8.29    0.03   0.000   0.200   0.000    0.00
  16.050    7.33    5.88   -0.12   0.000   0.200   0.000    0.00
  16.100    7.16    6.01   -0.44   0.000   0.200   0.000    0.00
  16.150    7.22    4.47   -0.70   0.000   0.200   0.000    0.00
  16.200    7.23    3.40   -0.85   0.000   0.200   0.000    0.00
  16.250    7.40    3.50   -0.92   0.000   0.200   0.000    0.00
  16.300    7.90   -0.05   -0.81   0.000   0.200   0.000    0.00
  16.350    7.60   -1.71   -0.81   0.000   0.200   0.000    0.00
  16.400    7.56   -2.35   -0.62   0.000   0.200   0.000    0.00
  16.450    7.72   -1.21   -0.61   0.000   0.200   0.000    0.00
  16.500    7.70   -0.31   -0.24   0.000   0.200   0.000    0.00
  16.550    7.61    0.98   -0.08   0.000   0.200   0.000    0.00
  16.600    7.61    0.07   -0.38   0.000   0.200   0.000    0.00
  16.650    7.45   -0.38   -0.54   0.000   0.200   0.000    0.00
  16.700    7.37    2.40   -0.06   0.000   0.200   0.000    0.00
  16.750    7.43   -1.24    0.09   0.000   0.200   0.000    0.00
  16.800    7.44   -1.22    0.17   0.000   0.200   0.000    0.00
  16.850    7.90   -0.17   -0.05   0.000   0.200   0.000    0.00
  16.900    7.51    1.33   -0.16   0.000   0.200   0.000    0.00
  16.950    7.80   -0.46    0.10   0.000   0.200   0.000    0.00
  17.000    7.85    2.35    0.06   0.000   0.200   0.000    0.00
  17.050    7.80    2.80    0.22   0.000   0.200   0.000    0.00
  17.100    7.84    4.11    0.08   0.000   0.200   0.000    0.00
  17.150    7.79    1.52    0.01   0.000   0.200   0.000    0.00
  17.200    7.73   -2.32    0.18   0.000   0.200   0.000    0.00
  17.250    7.95   -3.39    0.06   0.000   0.200   0.000    0.00
  17.300    7.95   -2.83   -0.31   0.000   0.200   0.000    0.00
  17.350    7.91   -0.97   -0.53   0.000   0.200   0.000    0.00
  17.400    8.04    2.27   -0.05   0.000   0.200   0.000    0.00
  17.450    7.81    3.49    0.51   0.000   0.200   0.000    0.00
  17.500    7.84    2.13    0.93   0.000   0.200   0.000    0.00
  17.550    7.74    1.84    1.35   0.000   0.200   0.000    0.00
  17.600    8.10    1.40    1.19   0.000   0.200   0.000    0.00
  17.650    7.96    3.05    1.28   0.000   0.200   0.000    0.00
  17.700    7.86    1.33    0.96   0.000   0.200   0.000    0.00
  17.750    7.89    1.11    1.12   0.000   0.200   0.000    0.00
  17.800    7.65    4.85    1.42   0.000   0.200   0.000    0.00
  17.850    7.61    5.16    1.18   0.000   0.200   0.000    0.00
  17.900    7.31    4.77    1.09   0.000   0.200   0.000    0.00
  17.950    7.10    2.29    1.23   0.000   0.200   0.000    0.00
  18.000    6.98    3.47    1.15   0.000   0.200   0.000    0.00
  18.050    7.03    4.67    1.33   0.000   0.200   0.000    0.00
  18.100    7.14    3.70    1.16   0.000   0.200   0.000    0.00
  18.150    6.99    6.08    1.41   0.000   0.200   0.000    0.00
  18.200    7.06    3.78    1.21   0.000   0.200   0.000    0.00
  18.250    6.93    4.74    1.45   0.000   0.200   0.000    0.00
  18.300    6.94    4.86    1.46   0.000   0.200   0.000    0.00
  18.350    6.90    4.22    1.66   0.000   0.200   0.000    0.00
  18.400    7.14    5.77    1.81   0.000   0.200   0.000    0.00
  18.450    6.92    6.77    1.95   0.000   0.200   0.000    0.00
  18.500    6.94   10.37    2.09   0.000   0.200   0.000    0.00
  18.550    7.54   10.87    2.02   0.000   0.200   0.000    0.00
  18.600    7.58   12.54    1.36   0.000   0.200   0.000    0.00
  18.650    7.44   12.95    1.33   0.000   0.200   0.000    0.00
  18.700    7.40   11.02    1.06   0.000   0.200   0.000    0.00
  18.750    7.50   11.76    1.28   0.000   0.200   0.000    0.00
  18.800    7.59   12.04    1.27   0.000   0.200   0.000    0.00
  18.850    7.15   13.28    1.63   0.000   0.200   0.000    0.00
  18.900    6.88   11.45    1.82   0.000   0.200   0.000    0.00
  18.950    7.08   13.52    1.91   0.000   0.200   0.000    0.00
  19.000    6.85   12.10    2.37   0.000   0.200   0.000    0.00
  19.050    6.95   14.37    2.19   0.000   0.200   0.000    0.00
  19.100    7.18   14.32    2.26   0.000   0.200   0.000    0.00
  19.150    7.23   13.96    2.04   0.000   0.200   0.000    0.00
  19.200    7.47   16.44    1.75   0.000   0.200   0.000    0.00
  19.250    7.16   14.17    1.64   0.000   0.200   0.000    0.00
  19.300    6.93   12.76    1.88   0.000   0.200   0.000    0.00
  19.350    6.93   14.23    1.81   0.000   0.200   0.000    0.00
  19.400    6.97   14.52    1.53   0.000   0.200   0.000    0.00
  19.450    7.17   11.80    1.26   0.000   0.200   0.000    0.00
  19.500    7.24   11.59    1.26   0.000   0.200   0.000    0.00
  19.550    7.14   10.98    1.34   0.000   0.200   0.000    0.00
  19.600    7.10   11.39    1.60   0.000   0.200   0.000    0.00
  19.650    7.30   10.60    1.58   0.000   0.200   0.000    0.00
  19.700    7.26    7.74    1.78   0.000   0.200   0.000    0.00
  19.750    7.18    7.64    1.69   0.000   0.200   0.000    0.00
  19.800    7.38    6.55    1.30   0.000   0.200   0.000    0.00
  19.850    7.45    7.65    1.34   0.000   0.200   0.000    0.00
  19.900    7.62    6.04    1.09   0.000   0.200   0.000    0.00
  19.950    7.74    6.52    1.07   0.000   0.200   0.000    0.00
  20.000    7.39    4.73    0.96   0.000   0.200   0.000    0.00
  20.050    7.46    3.01    0.75   0.000   0.200   0.000    0.00
  20.100    7.47    3.34    1.03   0.000   0.200   0.000    0.00
  20.150    7.61    1.71    1.12   0.000   0.200   0.000    0.00
  20.200    7.61    1.18    0.97   0.000   0.200   0.000    0.00
  20.250    7.55    1.59    0.99   0.000   0.200   0.000    0.00
  20.300    7.78    1.73    1.44   0.000   0.200   0.000    0.00
  20.350    7.97    1.63    1.43   0.000   0.200   0.000    0.00
  20.400    7.75    0.75    0.91   0.000   0.200   0.000    0.00
  20.450    7.85    3.19    0.69   0.000   0.200   0.000    0.00
  20.500    8.48    0.49    0.80   0.000   0.200   0.000    0.00
  20.550    8.43   -0.51    0.72   0.000   0.200   0.000    0.00
  20.600    7.99   -0.63    1.07   0.000   0.200   0.000    0.00
  20.650    8.11    0.55    1.45   0.000   0.200   0.000    0.00
  20.700    8.64    1.66    1.75   0.000   0.200   0.000    0.00
  20.750    8.68    1.08    1.60   0.000   0.200   0.000    0.00
  20.800    8.46    2.07    2.11   0.000   0.200   0.000    0.00
  20.850    8.21    0.36    2.09   0.000   0.200   0.000    0.00
  20.900    8.05   -1.04    1.74   0.000   0.200   0.000    0.00
  20.950    7.90   -0.70    1.90   0.000   0.200   0.000    0.00
  21.000    7.71   -2.69    2.16   0.000   0.200   0.000    0.00
  21.050    7.40   -3.45    1.92   0.000   0.200   0.000    0.00
  21.100    7.34   -2.03    1.60   0.000   0.200   0.000    0.00
  21.150    7.79   -1.54    1.73   0.000   0.200   0.000    0.00
  21.200    8.28   -2.93    2.08   0.000   0.200   0.000    0.00
  21.250    8.40   -3.13    2.28   0.000   0.200   0.000    0.00
  21.300    8.58   -2.37    2.40   0.000   0.200   0.000    0.00
  21.350    8.34   -1.23    2.34   0.000   0.200   0.000    0.00
  21.400    8.19   -1.83    2.65   0.000   0.200   0.000    0.00
  21.450    8.41   -1.55    2.56   0.000   0.200   0.000    0.00
  21.500    8.84   -0.92    2.44   0.000   0.200   0.000    0.00
  21.550    8.63    1.03    2.24   0.000   0.200   0.000    0.00
  21.600    8.69    0.79    2.35   0.000   0.200   0.000    0.00
  21.650    8.49    1.80    2.11   0.000   0.200   0.000    0.00
  21.700    8.24    3.18    1.82   0.000   0.200   0.000    0.00
  21.750    8.66    2.57    1.95   0.000   0.200   0.000    0.00
  21.800    8.76    3.26    2.11   0.000   0.200   0.000    0.00
  21.850    8.76    2.53    2.54   0.000   0.200   0.000    0.00
  21.900    8.84    1.38    2.07   0.000   0.200   0.000    0.00
  21.950    8.85    1.17    1.98   0.000   0.200   0.000    0.00
  22.000    8.77    0.91    1.77   0.000   0.200   0.000    0.00
  22.050    8.83    1.02    1.73   0.000   0.200   0.000    0.00
  22.100    8.70    2.11    1.89   0.000   0.200   0.000    0.00
  22.150    8.48    6.04    1.60   0.000   0.200   0.000    0.00
  22.200    8.11    5.57    1.36   0.000   0.200   0.000    0.00
  22.250    7.91    7.03    1.28   0.000   0.200   0.000    0.00
  22.300    7.67   10.81    1.54   0.000   0.200   0.000    0.00
  22.350    7.58    8.26    1.41   0.000   0.200   0.000    0.00