! This hub-height wind-speed file was generated by TurbSim (v1.06.00, 21-Sep-2012) on 03-Feb-2018 at 23:31:30.
!
! The requested statistics for this data were:
!    Mean Total Wind Speed =   13.000 m/s
!    Turbulence Intensity  =   24.640%
!
!   Time  HorSpd  WndDir  VerSpd  HorShr  VerShr  LnVShr  GstSpd
!  (sec)   (m/s)   (deg)   (m/s)     (-)     (-)     (-)   (m/s)
   0.000   15.28    7.24    1.88   0.000   0.200   0.000    0.00
   0.050   16.29   10.56    1.97   0.000   0.200   0.000    0.00
   0.100   16.42   10.79    1.04   0.000   0.200   0.000    0.00
   0.150   16.49    9.47    0.59   0.000   0.200   0.000    0.00
   0.200   16.04   11.90    0.40   0.000   0.200   0.000    0.00
   0.250   15.70   11.99    0.09   0.000   0.200   0.000    0.00
   0.300   15.51   14.88    0.92   0.000   0.200   0.000    0.00
   0.350   14.55   16.35    0.84   0.000   0.200   0.000    0.00
   0.400   15.53   14.23    1.10   0.000   0.200   0.000    0.00
   0.450   15.63   18.57    0.68   0.000   0.200   0.000    0.00
   0.500   15.74   17.30   -0.34   0.000   0.200   0.000    0.00
   0.550   15.48   13.60   -0.62   0.000   0.200   0.000    0.00
   0.600   15.77   12.17   -0.18   0.000   0.200   0.000    0.00
   0.650   15.72   12.48    0.11   0.000   0.200   0.000    0.00
   0.700   15.39   13.06    0.09   0.000   0.200   0.000    0.00
   0.750   15.56   12.67    0.26   0.000   0.200   0.000    0.00
   0.800   14.67   13.33   -0.51   0.000   0.200   0.000    0.00
   0.850   14.66    8.06    0.01   0.000   0.200   0.000    0.00
   0.900   14.46   12.30   -0.29   0.000   0.200   0.000    0.00
   0.950   13.73   13.94    0.61   0.000   0.200   0.000    0.00
   1.000   13.76   12.94    1.06   0.000   0.200   0.000    0.00
   1.050   14.22    8.68    0.52   0.000   0.200   0.000    0.00
   1.100   15.06    7.74    0.94   0.000   0.200   0.000    0.00
   1.150   15.81   10.93    0.85   0.000   0.200   0.000    0.00
   1.200   15.47    9.94    1.25   0.000   0.200   0.000    0.00
   1.250   15.60    5.87    1.30   0.000   0.200   0.000    0.00
   1.300   16.02    5.07    1.26   0.000   0.200   0.000    0.00
   1.350   16.09    7.89    1.71   0.000   0.200   0.000    0.00
   1.400   17.37    6.41    1.05   0.000   0.200   0.000    0.00
   1.450   16.69    6.83    0.24   0.000   0.200   0.000    0.00
   1.500   16.36    6.54   -0.13   0.000   0.200   0.000    0.00
   1.550   16.80    7.35   -0.32   0.000   0.200   0.000    0.00
   1.600   16.84    6.37   -1.34   0.000   0.200   0.000    0.00
   1.650   17.12    7.27   -2.04   0.000   0.200   0.000    0.00
   1.700   17.55    5.31   -1.77   0.000   0.200   0.000    0.00
   1.750   16.82    6.19   -1.87   0.000   0.200   0.000    0.00
   1.800   17.65    6.26   -1.07   0.000   0.200   0.000    0.00
   1.850   18.03    6.20   -0.38   0.000   0.200   0.000    0.00
   1.900   17.70    3.52    0.12   0.000   0.200   0.000    0.00
   1.950   17.52    0.85   -0.11   0.000   0.200   0.000    0.00
   2.000   17.34   -1.30   -0.63   0.000   0.200   0.000    0.00
   2.050   17.15   -2.33   -0.69   0.000   0.200   0.000    0.00
   2.100   17.38   -2.88   -1.13   0.000   0.200   0.000    0.00
   2.150   17.67   -0.49   -0.97   0.000   0.200   0.000    0.00
   2.200   18.24    0.22   -0.79   0.000   0.200   0.000    0.00
   2.250   18.09    2.80   -1.37   0.000   0.200   0.000    0.00
   2.300   17.28    9.24   -1.28   0.000   0.200   0.000    0.00
   2.350   18.19    4.66   -0.86   0.000   0.200   0.000    0.00
   2.400   18.87    5.36   -1.34   0.000   0.200   0.000    0.00
   2.450   19.31    6.79   -2.15   0.000   0.200   0.000    0.00
   2.500   19.02    7.94   -2.38   0.000   0.200   0.000    0.00
   2.550   18.91    7.74   -1.90   0.000   0.200   0.000    0.00
   2.600   19.07    4.90   -1.13   0.000   0.200   0.000    0.00
   2.650   19.22    5.93   -1.18   0.000   0.200   0.000    0.00
   2.700   20.16    5.78   -0.84   0.000   0.200   0.000    0.00
   2.750   20.56    3.30   -0.57   0.000   0.200   0.000    0.00
   2.800   20.29    1.74   -0.82   0.000   0.200   0.000    0.00
   2.850   19.49    2.04   -1.48   0.000   0.200   0.000    0.00
   2.900   19.29    3.69   -0.41   0.000   0.200   0.000    0.00
   2.950   19.88    2.25    0.14   0.000   0.200   0.000    0.00
   3.000   19.43    2.30    0.60   0.000   0.200   0.000    0.00
   3.050   18.83    0.96    0.54   0.000   0.200   0.000    0.00
   3.100   18.39    1.72    0.47   0.000   0.200   0.000    0.00
   3.150   17.84    3.98   -0.26   0.000   0.200   0.000    0.00
   3.200   17.27    3.63   -0.42   0.000   0.200   0.000    0.00
   3.250   17.07    5.12   -0.01   0.000   0.200   0.000    0.00
   3.300   17.17    4.17   -1.09   0.000   0.200   0.000    0.00
   3.350   17.38    1.27   -1.49   0.000   0.200   0.000    0.00
   3.400   17.08    1.18   -1.98   0.000   0.200   0.000    0.00
   3.450   16.79    1.85   -1.86   0.000   0.200   0.000    0.00
   3.500   17.09    3.22   -1.30   0.000   0.200   0.000    0.00
   3.550   17.20    2.81   -1.55   0.000   0.200   0.000    0.00
   3.600   17.23   -0.05   -1.40   0.000   0.200   0.000    0.00
   3.650   17.29    0.48   -1.49   0.000   0.200   0.000    0.00
   3.700   18.79    1.93   -1.92   0.000   0.200   0.000    0.00
   3.750   18.70    2.36   -0.80   0.000   0.200   0.000    0.00
   3.800   18.25    0.66   -0.06   0.000   0.200   0.000    0.00
   3.850   17.80   -0.14   -0.20   0.000   0.200   0.000    0.00
   3.900   17.39    5.56    0.13   0.000   0.200   0.000    0.00
   3.950   17.54    3.80    0.91   0.000   0.200   0.000    0.00
   4.000   16.98    4.00   -0.44   0.000   0.200   0.000    0.00
   4.050   17.29    6.47   -1.38   0.000   0.200   0.000    0.00
   4.100   17.05    7.08   -1.14   0.000   0.200   0.000    0.00
   4.150   17.51    7.09   -1.46   0.000   0.200   0.000    0.00
   4.200   17.11    5.62   -1.54   0.000   0.200   0.000    0.00
   4.250   17.02    7.87   -1.23   0.000   0.200   0.000    0.00
   4.300   16.83   11.10   -0.86   0.000   0.200   0.000    0.00
   4.350   17.40    9.44   -0.59   0.000   0.200   0.000    0.00
   4.400   17.40    9.46    0.40   0.000   0.200   0.000    0.00
   4.450   16.41   11.86    1.44   0.000   0.200   0.000    0.00
   4.500   15.63   10.28    1.76   0.000   0.200   0.000    0.00
   4.550   15.37    7.80    2.13   0.000   0.200   0.000    0.00
   4.600   15.38    7.79    2.57   0.000   0.200   0.000    0.00
   4.650   15.70    7.68    1.25   0.000   0.200   0.000    0.00
   4.700   15.34    8.51    1.53   0.000   0.200   0.000    0.00
   4.750   14.48   11.92    1.79   0.000   0.200   0.000    0.00
   4.800   15.12   14.76    1.71   0.000   0.200   0.000    0.00
   4.850   14.52   15.39    1.50   0.000   0.200   0.000    0.00
   4.900   14.47   10.51    0.90   0.000   0.200   0.000    0.00
   4.950   14.30    9.74    0.90   0.000   0.200   0.000    0.00
   5.000   14.04   10.06    1.46   0.000   0.200   0.000    0.00
   5.050   15.08    7.00    1.48   0.000   0.200   0.000    0.00
   5.100   14.78    3.11    1.06   0.000   0.200   0.000    0.00
   5.150   14.87    1.80    0.89   0.000   0.200   0.000    0.00
   5.200   15.82   -3.71    0.14   0.000   0.200   0.000    0.00
   5.250   15.78   -2.24    1.30   0.000   0.200   0.000    0.00
   5.300   15.19   -0.14    1.19   0.000   0.200   0.000    0.00
   5.350   16.16   -1.51    1.14   0.000   0.200   0.000    0.00
   5.400   14.88   -1.00    1.69   0.000   0.200   0.000    0.00
   5.450   14.58   -2.43    2.44   0.000   0.200   0.000    0.00
   5.500   15.12   -2.30    2.35   0.000   0.200   0.000    0.00
   5.550   15.49   -3.75    1.47   0.000   0.200   0.000    0.00
   5.600   15.85   -2.41    1.33   0.000   0.200   0.000    0.00
   5.650   16.52    1.36    1.38   0.000   0.200   0.000    0.00
   5.700   16.06    6.38    0.82   0.000   0.200   0.000    0.00
   5.750   16.44    4.75    0.40   0.000   0.200   0.000    0.00
   5.800   15.76    2.54    0.86   0.000   0.200   0.000    0.00
   5.850   15.56    5.13    1.00   0.000   0.200   0.000    0.00
   5.900   16.27   10.08    0.75   0.000   0.200   0.000    0.00
   5.950   15.46   10.24    1.02   0.000   0.200   0.000    0.00
   6.000   15.39    7.93    1.80   0.000   0.200   0.000    0.00
   6.050   15.32    7.92    1.33   0.000   0.200   0.000    0.00
   6.100   15.47    9.18    0.68   0.000   0.200   0.000    0.00
   6.150   15.50    9.59    0.47   0.000   0.200   0.000    0.00
   6.200   15.05    9.67    0.04   0.000   0.200   0.000    0.00
   6.250   14.97    8.75    0.16   0.000   0.200   0.000    0.00
   6.300   15.46    7.55   -0.48   0.000   0.200   0.000    0.00
   6.350   14.09    6.44   -0.37   0.000   0.200   0.000    0.00
   6.400   14.39    3.79   -0.45   0.000   0.200   0.000    0.00
   6.450   14.67    3.30    0.02   0.000   0.200   0.000    0.00
   6.500   14.01    6.39   -0.47   0.000   0.200   0.000    0.00
   6.550   13.71    8.89   -0.83   0.000   0.200   0.000    0.00
   6.600   14.51   12.06    0.05   0.000   0.200   0.000    0.00
   6.650   15.51    9.56    0.27   0.000   0.200   0.000    0.00
   6.700   15.48   11.39    0.33   0.000   0.200   0.000    0.00
   6.750   16.11   13.32    0.07   0.000   0.200   0.000    0.00
   6.800   15.69   14.54    0.21   0.000   0.200   0.000    0.00
   6.850   16.12   14.67    0.71   0.000   0.200   0.000    0.00
   6.900   16.06   14.26    0.80   0.000   0.200   0.000    0.00
   6.950   15.53   12.19    0.76   0.000   0.200   0.000    0.00
   7.000   15.44   10.99    0.28   0.000   0.200   0.000    0.00
   7.050   15.19   12.04    0.14   0.000   0.200   0.000    0.00
   7.100   15.40   11.96    0.79   0.000   0.200   0.000    0.00
   7.150   14.95   12.09    0.19   0.000   0.200   0.000    0.00
   7.200   14.89   11.14   -0.35   0.000   0.200   0.000    0.00
   7.250   15.17   13.97   -0.78   0.000   0.200   0.000    0.00
   7.300   14.75   15.59   -1.23   0.000   0.200   0.000    0.00
   7.350   14.46   16.64   -1.91   0.000   0.200   0.000    0.00
   7.400   14.48   16.44   -1.52   0.000   0.200   0.000    0.00
   7.450   15.27   11.11   -1.08   0.000   0.200   0.000    0.00
   7.500   15.86    9.02   -0.68   0.000   0.200   0.000    0.00
   7.550   15.22    6.75   -1.05   0.000   0.200   0.000    0.00
   7.600   15.07    7.70    0.07   0.000   0.200   0.000    0.00
   7.650   15.07    9.95   -0.17   0.000   0.200   0.000    0.00
   7.700   14.11   12.89   -0.67   0.000   0.200   0.000    0.00
   7.750   14.20   13.45   -0.12   0.000   0.200   0.000    0.00
   7.800   14.02   11.97    0.08   0.000   0.200   0.000    0.00
   7.850   14.57    9.14    0.11   0.000   0.200   0.000    0.00
   7.900   14.36   12.09   -0.20   0.000   0.200   0.000    0.00
   7.950   14.17   11.09   -0.76   0.000   0.200   0.000    0.00
   8.000   14.46    9.38   -1.25   0.000   0.200   0.000    0.00
   8.050   14.13    7.26   -0.82   0.000   0.200   0.000    0.00
   8.100   14.76    8.32   -0.70   0.000   0.200   0.000    0.00
   8.150   14.96    7.27   -0.24   0.000   0.200   0.000    0.00
   8.200   15.14    7.01    0.40   0.000   0.200   0.000    0.00
   8.250   14.99    7.80    0.08   0.000   0.200   0.000    0.00
   8.300   14.60    6.01    0.00   0.000   0.200   0.000    0.00
   8.350   14.71    5.52    0.31   0.000   0.200   0.000    0.00
   8.400   14.56    7.85    0.00   0.000   0.200   0.000    0.00
   8.450   14.68    4.52    0.12   0.000   0.200   0.000    0.00
   8.500   14.30    4.86   -0.05   0.000   0.200   0.000    0.00
   8.550   14.42    5.64    0.26   0.000   0.200   0.000    0.00
   8.600   15.06    7.98    0.36   0.000   0.200   0.000    0.00
   8.650   15.54    8.86    0.14   0.000   0.200   0.000    0.00
   8.700   15.50   11.39    1.00   0.000   0.200   0.000    0.00
   8.750   15.16    7.84    1.34   0.000   0.200   0.000    0.00
   8.800   15.07    2.86    2.34   0.000   0.200   0.000    0.00
   8.850   15.06    3.38    2.00   0.000   0.200   0.000    0.00
   8.900   14.51    4.33    1.07   0.000   0.200   0.000    0.00
   8.950   14.36    8.12    0.49   0.000   0.200   0.000    0.00
   9.000   14.22    9.95    1.18   0.000   0.200   0.000    0.00
   9.050   13.89    6.63    1.48   0.000   0.200   0.000    0.00
   9.100   13.56    5.89    2.02   0.000   0.200   0.000    0.00
   9.150   13.74   10.03    0.42   0.000   0.200   0.000    0.00
   9.200   13.71   11.21    1.53   0.000   0.200   0.000    0.00
   9.250   13.79   12.29    1.58   0.000   0.200   0.000    0.00
   9.300   14.03   12.86    1.21   0.000   0.200   0.000    0.00
   9.350   13.52    6.49    1.09   0.000   0.200   0.000    0.00
   9.400   13.69    3.93    1.48   0.000   0.200   0.000    0.00
   9.450   14.07    7.51    1.21   0.000   0.200   0.000    0.00
   9.500   13.91    4.11    0.25   0.000   0.200   0.000    0.00
   9.550   13.50    2.10   -0.89   0.000   0.200   0.000    0.00
   9.600   13.44    6.33   -1.69   0.000   0.200   0.000    0.00
   9.650   12.95    6.10   -0.34   0.000   0.200   0.000    0.00
   9.700   13.27    3.92    0.05   0.000   0.200   0.000    0.00
   9.750   13.33    3.87   -0.01   0.000   0.200   0.000    0.00
   9.800   14.46    0.33   -0.15   0.000   0.200   0.000    0.00
   9.850   13.17    1.13    0.44   0.000   0.200   0.000    0.00
   9.900   12.81    2.49    0.01   0.000   0.200   0.000    0.00
   9.950   13.04    1.66   -0.15   0.000   0.200   0.000    0.00
  10.000   13.46    0.63   -0.69   0.000   0.200   0.000    0.00
  10.050   13.51    3.11   -0.42   0.000   0.200   0.000    0.00
  10.100   13.84    6.33    0.30   0.000   0.200   0.000    0.00
  10.150   13.50    9.79    0.12   0.000   0.200   0.000    0.00
  10.200   13.88   10.69   -0.12   0.000   0.200   0.000    0.00
  10.250   14.68   12.73   -0.30   0.000   0.200   0.000    0.00
  10.300   14.49   11.69   -0.55   0.000   0.200   0.000    0.00
  10.350   15.53   13.89   -0.33   0.000   0.200   0.000    0.00
  10.400   15.31   14.24    0.31   0.000   0.200   0.000    0.00
  10.450   16.15   11.79    0.29   0.000   0.200   0.000    0.00
  10.500   15.47   10.88   -0.32   0.000   0.200   0.000    0.00
  10.550   15.80   10.95    0.29   0.000   0.200   0.000    0.00
  10.600   16.19    9.72    0.40   0.000   0.200   0.000    0.00
  10.650   15.32    9.56    0.53   0.000   0.200   0.000    0.00
  10.700   15.09    9.28   -0.37   0.000   0.200   0.000    0.00
  10.750   15.08   10.14   -0.02   0.000   0.200   0.000    0.00
  10.800   13.71   12.81   -0.02   0.000   0.200   0.000    0.00
  10.850   13.85   14.82   -0.03   0.000   0.200   0.000    0.00
  10.900   14.13   11.17    0.19   0.000   0.200   0.000    0.00
  10.950   13.94   11.36    0.62   0.000   0.200   0.000    0.00
  11.000   14.51   11.09    0.22   0.000   0.200   0.000    0.00
  11.050   14.97   12.87    1.23   0.000   0.200   0.000    0.00
  11.100   14.22   13.65    1.03   0.000   0.200   0.000    0.00
  11.150   14.38   13.47    1.04   0.000   0.200   0.000    0.00
  11.200   14.42   14.01    1.44   0.000   0.200   0.000    0.00
  11.250   14.33   12.49    1.48   0.000   0.200   0.000    0.00
  11.300   14.76   13.78    1.97   0.000   0.200   0.000    0.00
  11.350   13.90   13.04    2.03   0.000   0.200   0.000    0.00
  11.400   13.81   14.52    2.49   0.000   0.200   0.000    0.00
  11.450   13.65   18.34    2.18   0.000   0.200   0.000    0.00
  11.500   13.80   17.95    1.80   0.000   0.200   0.000    0.00
  11.550   13.60   17.47    1.39   0.000   0.200   0.000    0.00
  11.600   14.27   16.19    2.22   0.000   0.200   0.000    0.00
  11.650   14.06   14.28    2.91   0.000   0.200   0.000    0.00
  11.700   13.99   12.43    2.73   0.000   0.200   0.000    0.00
  11.750   14.24   14.17    2.56   0.000   0.200   0.000    0.00
  11.800   13.75   11.85    3.20   0.000   0.200   0.000    0.00
  11.850   13.49   11.28    3.85   0.000   0.200   0.000    0.00
  11.900   14.43    9.09    3.37   0.000   0.200   0.000    0.00
  11.950   14.04    7.27    3.38   0.000   0.200   0.000    0.00
  12.000   14.29    6.15    3.06   0.000   0.200   0.000    0.00
  12.050   14.67    5.27    2.56   0.000   0.200   0.000    0.00
  12.100   15.01    5.92    2.23   0.000   0.200   0.000    0.00
  12.150   14.81    9.87    2.29   0.000   0.200   0.000    0.00
  12.200   13.69    9.08    1.97   0.000   0.200   0.000    0.00
  12.250   13.05    6.10    1.29   0.000   0.200   0.000    0.00
  12.300   13.20    4.24    0.60   0.000   0.200   0.000    0.00
  12.350   12.57   -0.05    1.10   0.000   0.200   0.000    0.00
  12.400   11.57   -1.01    0.73   0.000   0.200   0.000    0.00
  12.450   11.01    2.33    1.03   0.000   0.200   0.000    0.00
  12.500   11.39    0.58    0.43   0.000   0.200   0.000    0.00
  12.550   11.05   -3.33    0.10   0.000   0.200   0.000    0.00
  12.600   11.61   -4.31   -0.11   0.000   0.200   0.000    0.00
  12.650   12.16   -2.12   -0.59   0.000   0.200   0.000    0.00
  12.700   11.75   -3.83   -0.86   0.000   0.200   0.000    0.00
  12.750   11.64   -1.74   -1.82   0.000   0.200   0.000    0.00
  12.800   12.05    0.33   -1.74   0.000   0.200   0.000    0.00
  12.850   12.97    1.87   -1.17   0.000   0.200   0.000    0.00
  12.900   12.98    1.36   -0.22   0.000   0.200   0.000    0.00
  12.950   12.81    1.29   -0.53   0.000   0.200   0.000    0.00
  13.000   11.74    2.91   -1.02   0.000   0.200   0.000    0.00
  13.050   12.37    5.45    0.19   0.000   0.200   0.000    0.00
  13.100   13.27    9.39    0.91   0.000   0.200   0.000    0.00
  13.150   12.70    9.91   -0.16   0.000   0.200   0.000    0.00
  13.200   12.38    8.44    0.04   0.000   0.200   0.000    0.00
  13.250   12.75    6.04   -0.97   0.000   0.200   0.000    0.00
  13.300   12.64    3.67   -1.24   0.000   0.200   0.000    0.00
  13.350   12.31    3.72   -0.49   0.000   0.200   0.000    0.00
  13.400   12.08    5.27   -1.58   0.000   0.200   0.000    0.00
  13.450   12.79    6.14   -1.95   0.000   0.200   0.000    0.00
  13.500   12.73    6.42   -1.85   0.000   0.200   0.000    0.00
  13.550   13.18    5.36   -2.02   0.000   0.200   0.000    0.00
  13.600   13.33    5.14   -1.41   0.000   0.200   0.000    0.00
  13.650   13.55    5.29   -0.34   0.000   0.200   0.000    0.00
  13.700   12.73    6.12   -0.23   0.000   0.200   0.000    0.00
  13.750   12.40    7.06   -0.35   0.000   0.200   0.000    0.00
  13.800   12.47    7.71   -0.95   0.000   0.200   0.000    0.00
  13.850   12.79   10.31   -0.45   0.000   0.200   0.000    0.00
  13.900   12.47    9.65   -0.97   0.000   0.200   0.000    0.00
  13.950   11.98    9.65   -0.58   0.000   0.200   0.000    0.00
  14.000   12.42   12.44   -0.82   0.000   0.200   0.000    0.00
  14.050   13.20   11.94    0.33   0.000   0.200   0.000    0.00
  14.100   13.72   11.90    0.09   0.000   0.200   0.000    0.00
  14.150   13.41   10.69   -0.20   0.000   0.200   0.000    0.00
  14.200   13.31    9.29   -0.65   0.000   0.200   0.000    0.00
  14.250   13.56    4.72   -0.83   0.000   0.200   0.000    0.00
  14.300   13.95    9.65   -1.27   0.000   0.200   0.000    0.00
  14.350   13.65   15.29   -0.62   0.000   0.200   0.000    0.00
  14.400   13.58   11.05   -0.41   0.000   0.200   0.000    0.00
  14.450   13.71    7.82   -0.09   0.000   0.200   0.000    0.00
  14.500   13.77    9.06   -0.09   0.000   0.200   0.000    0.00
  14.550   13.62   14.35   -0.02   0.000   0.200   0.000    0.00
  14.600   14.85   17.95   -0.10   0.000   0.200   0.000    0.00
  14.650   14.48   11.19   -0.92   0.000   0.200   0.000    0.00
  14.700   14.14    5.76   -0.74   0.000   0.200   0.000    0.00
  14.750   14.55    7.44   -0.31   0.000   0.200   0.000    0.00
  14.800   14.88    4.34   -0.88   0.000   0.200   0.000    0.00
  14.850   15.18    5.31   -1.18   0.000   0.200   0.000    0.00
  14.900   15.49    5.45    0.06   0.000   0.200   0.000    0.00
  14.950   15.70    2.38   -0.39   0.000   0.200   0.000    0.00
  15.000   16.07    7.13   -0.93   0.000   0.200   0.000    0.00
  15.050   16.55    6.82   -1.00   0.000   0.200   0.000    0.00
  15.100   16.68    8.94   -0.08   0.000   0.200   0.000    0.00
  15.150   16.23    8.71    0.09   0.000   0.200   0.000    0.00
  15.200   15.75    6.76   -0.39   0.000   0.200   0.000    0.00
  15.250   15.91    6.26   -1.28   0.000   0.200   0.000    0.00
  15.300   16.43    7.45   -1.48   0.000   0.200   0.000    0.00
  15.350   16.21    5.27   -1.85   0.000   0.200   0.000    0.00
  15.400   15.66    1.87   -2.77   0.000   0.200   0.000    0.00
  15.450   14.95    2.76   -2.32   0.000   0.200   0.000    0.00
  15.500   15.01    1.55   -2.92   0.000   0.200   0.000    0.00
  15.550   15.59    5.40   -2.97   0.000   0.200   0.000    0.00
  15.600   14.92    7.19   -2.09   0.000   0.200   0.000    0.00
  15.650   15.44    3.02   -1.19   0.000   0.200   0.000    0.00
  15.700   15.45    2.32   -0.53   0.000   0.200   0.000    0.00
  15.750   14.53    1.95   -0.60   0.000   0.200   0.000    0.00
  15.800   14.15    3.16   -1.21   0.000   0.200   0.000    0.00
  15.850   14.37    2.73   -1.29   0.000   0.200   0.000    0.00
  15.900   13.96    3.88   -1.06   0.000   0.200   0.000    0.00
  15.950   13.82    2.44    0.18   0.000   0.200   0.000    0.00
  16.000   13.46    3.49    0.21   0.000   0.200   0.000    0.00
  16.050   13.52    2.86   -0.08   0.000   0.200   0.000    0.00
  16.100   14.63    1.10   -0.55   0.000   0.200   0.000    0.00
  16.150   14.56    0.78   -0.28   0.000   0.200   0.000    0.00
  16.200   14.63    2.50    0.15   0.000   0.200   0.000    0.00
  16.250   14.26    2.59    0.05   0.000   0.200   0.000    0.00
  16.300   14.78    2.90    0.79   0.000   0.200   0.000    0.00
  16.350   14.64    4.80    0.39   0.000   0.200   0.000    0.00
  16.400   14.49    4.82   -0.18   0.000   0.200   0.000    0.00
  16.450   14.53    6.41    0.07   0.000   0.200   0.000    0.00
  16.500   15.07    8.31    0.43   0.000   0.200   0.000    0.00
  16.550   14.59    7.04    1.00   0.000   0.200   0.000    0.00
  16.600   13.90    8.15    0.68   0.000   0.200   0.000    0.00
  16.650   13.75    6.62   -0.66   0.000   0.200   0.000    0.00
  16.700   13.36    6.85   -1.49   0.000   0.200   0.000    0.00
  16.750   13.37    4.90   -1.33   0.000   0.200   0.000    0.00
  16.800   14.79    6.17   -0.72   0.000   0.200   0.000    0.00
  16.850   13.66    6.48   -0.96   0.000   0.200   0.000    0.00
  16.900   13.60    0.98   -1.34   0.000   0.200   0.000    0.00
  16.950   14.10   -3.25   -1.16   0.000   0.200   0.000    0.00
  17.000   13.88   -1.66   -0.37   0.000   0.200   0.000    0.00
  17.050   13.74    3.12   -0.66   0.000   0.200   0.000    0.00
  17.100   13.39    1.80   -1.59   0.000   0.200   0.000    0.00
  17.150   13.42    2.40   -1.05   0.000   0.200   0.000    0.00
  17.200   14.10    2.37   -0.59   0.000   0.200   0.000    0.00
  17.250   14.59    3.85   -0.20   0.000   0.200   0.000    0.00
  17.300   15.04   -1.30   -1.13   0.000   0.200   0.000    0.00
  17.350   14.49    1.28   -1.29   0.000   0.200   0.000    0.00
  17.400   14.14    2.02    0.13   0.000   0.200   0.000    0.00
  17.450   14.26    1.38    0.08   0.000   0.200   0.000    0.00
  17.500   13.74    6.44   -0.50   0.000   0.200   0.000    0.00
  17.550   14.47    8.64   -0.51   0.000   0.200   0.000    0.00
  17.600   15.42    4.41   -1.05   0.000   0.200   0.000    0.00
  17.650   15.95    5.87   -1.06   0.000   0.200   0.000    0.00
  17.700   16.34    3.84   -0.72   0.000   0.200   0.000    0.00
  17.750   15.81    2.37   -1.31   0.000   0.200   0.000    0.00
  17.800   15.78    6.08   -1.58   0.000   0.200   0.000    0.00
  17.850   15.81    7.60   -0.79   0.000   0.200   0.000    0.00
  17.900   15.39    7.90   -1.14   0.000   0.200   0.000    0.00
  17.950   15.21    7.83   -0.56   0.000   0.200   0.000    0.00
  18.000   15.48    6.98   -0.89   0.000   0.200   0.000    0.00
  18.050   14.39    7.23   -1.28   0.000   0.200   0.000    0.00
  18.100   13.74    7.18   -0.47   0.000   0.200   0.000    0.00
  18.150   13.63    6.85   -0.41   0.000   0.200   0.000    0.00
  18.200   12.88    6.28   -0.55   0.000   0.200   0.000    0.00
  18.250   12.71    5.58   -0.80   0.000   0.200   0.000    0.00
  18.300   12.74    6.52   -0.63   0.000   0.200   0.000    0.00
  18.350   13.06   11.04   -0.66   0.000   0.200   0.000    0.00
  18.400   13.02    8.32   -0.12   0.000   0.200   0.000    0.00
  18.450   13.47    9.27    0.07   0.000   0.200   0.000    0.00
  18.500   13.18    2.82    0.20   0.000   0.200   0.000    0.00
  18.550   13.47   -0.36    0.23   0.000   0.200   0.000    0.00
  18.600   13.47    2.63    0.10   0.000   0.200   0.000    0.00
  18.650   13.36    0.83    0.27   0.000   0.200   0.000    0.00
  18.700   13.48   -1.02   -0.43   0.000   0.200   0.000    0.00
  18.750   12.74    2.35    0.16   0.000   0.200   0.000    0.00
  18.800   12.47   -3.10    0.80   0.000   0.200   0.000    0.00
  18.850   12.86   -2.09   -0.01   0.000   0.200   0.000    0.00
  18.900   13.42    0.69   -0.51   0.000   0.200   0.000    0.00
  18.950   12.69    5.46    0.01   0.000   0.200   0.000    0.00
  19.000   12.49    8.14    0.02   0.000   0.200   0.000    0.00
  19.050   11.94    4.45   -0.16   0.000   0.200   0.000    0.00
  19.100   12.69    4.99   -0.67   0.000   0.200   0.000    0.00
  19.150   13.20    7.21   -0.63   0.000   0.200   0.000    0.00
  19.200   12.63    6.88   -0.35   0.000   0.200   0.000    0.00
  19.250   12.28    5.97    0.26   0.000   0.200   0.000    0.00
  19.300   12.60    8.85   -0.17   0.000   0.200   0.000    0.00
  19.350   12.10    5.18   -1.21   0.000   0.200   0.000    0.00
  19.400   11.58    0.80   -0.57   0.000   0.200   0.000    0.00
  19.450   11.23    2.75   -0.21   0.000   0.200   0.000    0.00
  19.500   10.51    2.26   -0.66   0.000   0.200   0.000    0.00
  19.550   10.74    0.32   -0.98   0.000   0.200   0.000    0.00
  19.600   11.48    2.59   -1.48   0.000   0.200   0.000    0.00
  19.650   12.52    4.96   -2.43   0.000   0.200   0.000    0.00
  19.700   12.52    9.68   -1.61   0.000   0.200   0.000    0.00
  19.750   13.23    6.18   -1.23   0.000   0.200   0.000    0.00
  19.800   13.68    5.63   -0.78   0.000   0.200   0.000    0.00
  19.850   13.50   10.38   -0.11   0.000   0.200   0.000    0.00
  19.900   14.05    9.80    0.18   0.000   0.200   0.000    0.00
  19.950   14.14   12.13    0.06   0.000   0.200   0.000    0.00
  20.000   14.51    9.18    0.08   0.000   0.200   0.000    0.00
  20.050   13.63    3.45   -0.82   0.000   0.200   0.000    0.00
  20.100   13.79    3.65   -0.48   0.000   0.200   0.000    0.00
  20.150   14.30    1.37   -0.52   0.000   0.200   0.000    0.00
  20.200   14.69   -0.22   -1.47   0.000   0.200   0.000    0.00
  20.250   14.64    0.80   -1.51   0.000   0.200   0.000    0.00
  20.300   15.17    3.52   -1.73   0.000   0.200   0.000    0.00
  20.350   14.37    5.49   -1.15   0.000   0.200   0.000    0.00
  20.400   15.20    4.89   -0.96   0.000   0.200   0.000    0.00
  20.450   15.07    5.60   -1.07   0.000   0.200   0.000    0.00
  20.500   14.24    7.96   -1.40   0.000   0.200   0.000    0.00
  20.550   14.33    5.58   -1.12   0.000   0.200   0.000    0.00
  20.600   14.06    6.73   -1.39   0.000   0.200   0.000    0.00
  20.650   14.86    8.39   -1.85   0.000   0.200   0.000    0.00
  20.700   15.16    5.52   -2.34   0.000   0.200   0.000    0.00
  20.750   15.19    1.39   -2.73   0.000   0.200   0.000    0.00
  20.800   14.88    1.61   -2.41   0.000   0.200   0.000    0.00
  20.850   13.71    3.86   -2.39   0.000   0.200   0.000    0.00
  20.900   14.12    1.35   -3.63   0.000   0.200   0.000    0.00
  20.950   14.07   -1.97   -3.61   0.000   0.200   0.000    0.00
  21.000   14.59   -2.00   -2.89   0.000   0.200   0.000    0.00
  21.050   14.84   -1.95   -3.20   0.000   0.200   0.000    0.00
  21.100   14.76   -5.24   -2.21   0.000   0.200   0.000    0.00
  21.150   16.19   -4.86   -3.11   0.000   0.200   0.000    0.00
  21.200   15.88   -4.69   -2.26   0.000   0.200   0.000    0.00
  21.250   15.77   -5.18   -1.30   0.000   0.200   0.000    0.00
  21.300   15.86   -6.05   -1.86   0.000   0.200   0.000    0.00
  21.350   15.40   -5.49   -0.64   0.000   0.200   0.000    0.00
  21.400   15.39   -2.65   -0.65   0.000   0.200   0.000    0.00
  21.450   15.33   -2.11   -0.55   0.000   0.200   0.000    0.00
  21.500   13.89    1.93   -0.76   0.000   0.200   0.000    0.00
  21.550   13.38    1.49   -0.60   0.000   0.200   0.000    0.00
  21.600   14.47   -5.81   -1.14   0.000   0.200   0.000    0.00
  21.650   14.69   -8.41   -1.47   0.000   0.200   0.000    0.00
  21.700   13.98   -4.07   -1.72   0.000   0.200   0.000    0.00
  21.750   13.81   -0.28   -2.00   0.000   0.200   0.000    0.00
  21.800   14.07   -1.97   -0.87   0.000   0.200   0.000    0.00
  21.850   14.08   -2.00   -0.36   0.000   0.200   0.000    0.00
  21.900   13.91   -2.80   -0.43   0.000   0.200   0.000    0.00
  21.950   14.44    1.32    0.05   0.000   0.200   0.000    0.00
  22.000   14.86    2.78    0.76   0.000   0.200   0.000    0.00
  22.050   14.74    2.48   -0.65   0.000   0.200   0.000    0.00
  22.100   15.00    5.04    0.72   0.000   0.200   0.000    0.00
  22.150   16.36    5.04    1.35   0.000   0.200   0.000    0.00
  22.200   16.39    9.39    1.94   0.000   0.200   0.000    0.00
  22.250   16.46    6.31    1.04   0.000   0.200   0.000    0.00
  22.300   16.04    5.58    0.54   0.000   0.200   0.000    0.00
  22.350   16.11    6.56    0.75   0.000   0.200   0.000    0.00