! This hub-height wind-speed file was generated by TurbSim (v1.06.00, 21-Sep-2012) on 03-Feb-2018 at 23:34:16.
!
! The requested statistics for this data were:
!    Mean Total Wind Speed =   15.000 m/s
!    Turbulence Intensity  =   15.727%
!
!   Time  HorSpd  WndDir  VerSpd  HorShr  VerShr  LnVShr  GstSpd
!  (sec)   (m/s)   (deg)   (m/s)     (-)     (-)     (-)   (m/s)
   0.000   11.68   -0.09   -0.80   0.000   0.200   0.000    0.00
   0.050   11.40    2.58   -0.55   0.000   0.200   0.000    0.00
   0.100   11.27    4.63   -1.70   0.000   0.200   0.000    0.00
   0.150   11.23    4.41   -1.47   0.000   0.200   0.000    0.00
   0.200   11.45    6.10   -1.34   0.000   0.200   0.000    0.00
   0.250   11.60    8.42   -1.15   0.000   0.200   0.000    0.00
   0.300   11.69   10.16   -1.99   0.000   0.200   0.000    0.00
   0.350   11.46    8.49   -1.02   0.000   0.200   0.000    0.00
   0.400   11.35    4.08   -0.50   0.000   0.200   0.000    0.00
   0.450   11.26    4.71   -0.53   0.000   0.200   0.000    0.00
   0.500   10.98    6.97    0.22   0.000   0.200   0.000    0.00
   0.550   11.36    9.27    0.19   0.000   0.200   0.000    0.00
   0.600   11.23   11.68   -0.62   0.000   0.200   0.000    0.00
   0.650   11.93   11.25   -0.80   0.000   0.200   0.000    0.00
   0.700   11.27    3.15   -1.28   0.000   0.200   0.000    0.00
   0.750   10.90    6.26   -1.72   0.000   0.200   0.000    0.00
   0.800   11.20    7.51   -2.04   0.000   0.200   0.000    0.00
   0.850   11.38    5.53   -2.25   0.000   0.200   0.000    0.00
   0.900   11.34    5.18   -2.62   0.000   0.200   0.000    0.00
   0.950   11.43    4.57   -2.20   0.000   0.200   0.000    0.00
   1.000   10.85    8.53   -1.95   0.000   0.200   0.000    0.00
   1.050   11.26    6.47   -1.92   0.000   0.200   0.000    0.00
   1.100   11.62    4.40   -2.45   0.000   0.200   0.000    0.00
   1.150   11.89    4.68   -2.70   0.000   0.200   0.000    0.00
   1.200   12.01    3.19   -3.07   0.000   0.200   0.000    0.00
   1.250   11.97    1.46   -2.59   0.000   0.200   0.000    0.00
   1.300   11.21    0.98   -2.94   0.000   0.200   0.000    0.00
   1.350   11.30    0.52   -3.30   0.000   0.200   0.000    0.00
   1.400   11.48    1.84   -2.68   0.000   0.200   0.000    0.00
   1.450   11.73    1.95   -2.95   0.000   0.200   0.000    0.00
   1.500   11.53    2.57   -2.80   0.000   0.200   0.000    0.00
   1.550   11.69    4.04   -3.04   0.000   0.200   0.000    0.00
   1.600   12.19    6.36   -3.90   0.000   0.200   0.000    0.00
   1.650   13.12    4.94   -3.84   0.000   0.200   0.000    0.00
   1.700   13.29    4.09   -3.49   0.000   0.200   0.000    0.00
   1.750   13.53    5.87   -3.39   0.000   0.200   0.000    0.00
   1.800   13.34    5.57   -1.91   0.000   0.200   0.000    0.00
   1.850   13.44    8.54   -1.17   0.000   0.200   0.000    0.00
   1.900   12.97    7.10   -1.13   0.000   0.200   0.000    0.00
   1.950   13.05    5.74   -1.02   0.000   0.200   0.000    0.00
   2.000   13.12    6.79   -0.14   0.000   0.200   0.000    0.00
   2.050   12.98    7.67    0.47   0.000   0.200   0.000    0.00
   2.100   12.82    9.29    0.14   0.000   0.200   0.000    0.00
   2.150   12.12    7.69    0.02   0.000   0.200   0.000    0.00
   2.200   12.06    4.48    0.58   0.000   0.200   0.000    0.00
   2.250   12.50    4.89    0.16   0.000   0.200   0.000    0.00
   2.300   12.22    4.47    0.28   0.000   0.200   0.000    0.00
   2.350   12.16    2.11    0.55   0.000   0.200   0.000    0.00
   2.400   11.88    4.35    0.37   0.000   0.200   0.000    0.00
   2.450   12.10    3.39    0.13   0.000   0.200   0.000    0.00
   2.500   11.94    4.16    0.11   0.000   0.200   0.000    0.00
   2.550   11.49    0.83   -0.33   0.000   0.200   0.000    0.00
   2.600   11.98    0.30   -0.31   0.000   0.200   0.000    0.00
   2.650   11.91   -0.54   -0.24   0.000   0.200   0.000    0.00
   2.700   11.89    2.51   -0.55   0.000   0.200   0.000    0.00
   2.750   12.07    1.19   -0.67   0.000   0.200   0.000    0.00
   2.800   12.25   -0.93   -0.55   0.000   0.200   0.000    0.00
   2.850   11.36    0.09   -1.25   0.000   0.200   0.000    0.00
   2.900   11.24    2.36   -0.91   0.000   0.200   0.000    0.00
   2.950   11.25   -2.56   -1.06   0.000   0.200   0.000    0.00
   3.000   11.70   -5.53   -0.97   0.000   0.200   0.000    0.00
   3.050   11.63   -6.36   -0.97   0.000   0.200   0.000    0.00
   3.100   10.97   -4.76   -0.78   0.000   0.200   0.000    0.00
   3.150   10.50   -2.62   -0.15   0.000   0.200   0.000    0.00
   3.200   10.00   -1.02   -1.00   0.000   0.200   0.000    0.00
   3.250   10.66   -4.16   -1.32   0.000   0.200   0.000    0.00
   3.300   10.48    0.43   -1.04   0.000   0.200   0.000    0.00
   3.350   10.41   -2.31   -0.69   0.000   0.200   0.000    0.00
   3.400   10.92   -6.72   -1.00   0.000   0.200   0.000    0.00
   3.450   10.25   -3.59   -0.34   0.000   0.200   0.000    0.00
   3.500   10.65   -4.95   -0.22   0.000   0.200   0.000    0.00
   3.550   10.89   -6.26   -0.03   0.000   0.200   0.000    0.00
   3.600   10.40   -4.04    0.15   0.000   0.200   0.000    0.00
   3.650   10.68   -3.91   -0.25   0.000   0.200   0.000    0.00
   3.700   10.90    1.79    0.58   0.000   0.200   0.000    0.00
   3.750   11.28    0.39    0.98   0.000   0.200   0.000    0.00
   3.800   11.25   -1.36    0.57   0.000   0.200   0.000    0.00
   3.850   10.71   -4.79    1.19   0.000   0.200   0.000    0.00
   3.900   10.58   -0.72    1.65   0.000   0.200   0.000    0.00
   3.950   10.51    4.63    1.89   0.000   0.200   0.000    0.00
   4.000   10.95    4.08    1.87   0.000   0.200   0.000    0.00
   4.050   10.94    6.32    1.08   0.000   0.200   0.000    0.00
   4.100   11.05    2.76    0.71   0.000   0.200   0.000    0.00
   4.150   10.64    3.20    1.01   0.000   0.200   0.000    0.00
   4.200   10.32    4.53    1.16   0.000   0.200   0.000    0.00
   4.250   10.51    8.40    0.76   0.000   0.200   0.000    0.00
   4.300   11.01    6.77    0.80   0.000   0.200   0.000    0.00
   4.350   10.50    4.24    1.22   0.000   0.200   0.000    0.00
   4.400   10.53   11.08    1.01   0.000   0.200   0.000    0.00
   4.450   10.37   10.23    1.06   0.000   0.200   0.000    0.00
   4.500   10.56    7.52    1.26   0.000   0.200   0.000    0.00
   4.550   10.41   10.35    0.59   0.000   0.200   0.000    0.00
   4.600   10.70   11.13    0.12   0.000   0.200   0.000    0.00
   4.650   11.09   10.24    0.55   0.000   0.200   0.000    0.00
   4.700   11.74    9.91    0.45   0.000   0.200   0.000    0.00
   4.750   12.40   11.39    0.38   0.000   0.200   0.000    0.00
   4.800   12.11    8.68    0.51   0.000   0.200   0.000    0.00
   4.850   11.95    7.54    1.17   0.000   0.200   0.000    0.00
   4.900   11.84    5.66    0.27   0.000   0.200   0.000    0.00
   4.950   11.67    7.63    0.64   0.000   0.200   0.000    0.00
   5.000   11.40    1.09    0.47   0.000   0.200   0.000    0.00
   5.050   11.74    1.59    0.59   0.000   0.200   0.000    0.00
   5.100   11.45   -0.46    0.60   0.000   0.200   0.000    0.00
   5.150   10.89    2.09    0.65   0.000   0.200   0.000    0.00
   5.200   10.36   -0.23    0.71   0.000   0.200   0.000    0.00
   5.250   11.24    5.83    0.38   0.000   0.200   0.000    0.00
   5.300   11.88    3.01    0.17   0.000   0.200   0.000    0.00
   5.350   12.49    3.34    0.83   0.000   0.200   0.000    0.00
   5.400   12.71    6.68    0.06   0.000   0.200   0.000    0.00
   5.450   12.49    7.56    0.42   0.000   0.200   0.000    0.00
   5.500   11.77    6.02    0.26   0.000   0.200   0.000    0.00
   5.550   12.11    5.75    0.45   0.000   0.200   0.000    0.00
   5.600   12.08    8.48    0.09   0.000   0.200   0.000    0.00
   5.650   12.40    8.28   -0.04   0.000   0.200   0.000    0.00
   5.700   12.12   11.20    0.26   0.000   0.200   0.000    0.00
   5.750   11.97    8.21    0.29   0.000   0.200   0.000    0.00
   5.800   11.81    4.80   -0.88   0.000   0.200   0.000    0.00
   5.850   11.34    4.39   -0.99   0.000   0.200   0.000    0.00
   5.900   11.69    0.57   -0.59   0.000   0.200   0.000    0.00
   5.950   11.78    1.92    0.49   0.000   0.200   0.000    0.00
   6.000   11.34    1.15    0.60   0.000   0.200   0.000    0.00
   6.050   11.50   -0.90    0.51   0.000   0.200   0.000    0.00
   6.100   11.85   -2.90    0.23   0.000   0.200   0.000    0.00
   6.150   11.72   -3.14   -0.26   0.000   0.200   0.000    0.00
   6.200   11.52   -1.81   -0.37   0.000   0.200   0.000    0.00
   6.250   11.92   -1.76   -0.77   0.000   0.200   0.000    0.00
   6.300   11.48   -2.74   -0.59   0.000   0.200   0.000    0.00
   6.350   11.49    0.75   -0.48   0.000   0.200   0.000    0.00
   6.400   11.80   -1.77    0.56   0.000   0.200   0.000    0.00
   6.450   11.64   -2.69    0.80   0.000   0.200   0.000    0.00
   6.500   11.28   -1.15   -0.15   0.000   0.200   0.000    0.00
   6.550   10.77   -3.19    0.08   0.000   0.200   0.000    0.00
   6.600   10.74   -0.57    0.45   0.000   0.200   0.000    0.00
   6.650   11.50   -1.39    0.45   0.000   0.200   0.000    0.00
   6.700   11.54    0.28    0.02   0.000   0.200   0.000    0.00
   6.750   11.41   -3.31    0.17   0.000   0.200   0.000    0.00
   6.800   12.06   -9.07    1.08   0.000   0.200   0.000    0.00
   6.850   12.70  -12.11    0.48   0.000   0.200   0.000    0.00
   6.900   12.45  -11.83    0.03   0.000   0.200   0.000    0.00
   6.950   12.01  -10.04   -0.54   0.000   0.200   0.000    0.00
   7.000   12.68  -10.48   -0.18   0.000   0.200   0.000    0.00
   7.050   12.81   -9.93   -0.80   0.000   0.200   0.000    0.00
   7.100   12.07  -12.27   -1.33   0.000   0.200   0.000    0.00
   7.150   12.15  -10.45   -1.35   0.000   0.200   0.000    0.00
   7.200   12.22   -9.61   -1.13   0.000   0.200   0.000    0.00
   7.250   11.86   -5.47   -0.64   0.000   0.200   0.000    0.00
   7.300   10.61   -2.09   -0.97   0.000   0.200   0.000    0.00
   7.350   10.83   -5.28   -1.04   0.000   0.200   0.000    0.00
   7.400   10.67   -3.34   -1.57   0.000   0.200   0.000    0.00
   7.450   11.23   -2.36   -1.42   0.000   0.200   0.000    0.00
   7.500   11.14   -0.12   -1.10   0.000   0.200   0.000    0.00
   7.550   10.66    0.00   -1.68   0.000   0.200   0.000    0.00
   7.600   10.89   -4.70   -0.83   0.000   0.200   0.000    0.00
   7.650   10.68   -2.84    0.28   0.000   0.200   0.000    0.00
   7.700   10.79   -4.07   -0.01   0.000   0.200   0.000    0.00
   7.750   10.91   -2.28   -0.50   0.000   0.200   0.000    0.00
   7.800   11.60   -2.82   -1.10   0.000   0.200   0.000    0.00
   7.850   10.96   -1.37   -1.64   0.000   0.200   0.000    0.00
   7.900   11.26   -0.37   -1.90   0.000   0.200   0.000    0.00
   7.950   12.13    1.69   -1.80   0.000   0.200   0.000    0.00
   8.000   11.92    2.49   -1.39   0.000   0.200   0.000    0.00
   8.050   12.18    2.38   -1.98   0.000   0.200   0.000    0.00
   8.100   12.17    0.06   -2.16   0.000   0.200   0.000    0.00
   8.150   12.34   -0.24   -2.49   0.000   0.200   0.000    0.00
   8.200   12.85   -0.35   -2.15   0.000   0.200   0.000    0.00
   8.250   12.62    1.84   -1.70   0.000   0.200   0.000    0.00
   8.300   11.70   -2.14   -1.47   0.000   0.200   0.000    0.00
   8.350   11.00   -0.76   -1.27   0.000   0.200   0.000    0.00
   8.400   11.09    2.07   -1.58   0.000   0.200   0.000    0.00
   8.450   10.99    2.05   -2.10   0.000   0.200   0.000    0.00
   8.500   11.75    4.80   -1.95   0.000   0.200   0.000    0.00
   8.550   12.24    2.86   -1.70   0.000   0.200   0.000    0.00
   8.600   12.09    0.54   -1.45   0.000   0.200   0.000    0.00
   8.650   12.25    1.18   -0.91   0.000   0.200   0.000    0.00
   8.700   12.32   -0.77   -0.88   0.000   0.200   0.000    0.00
   8.750   12.04   -0.47   -1.50   0.000   0.200   0.000    0.00
   8.800   11.85    4.76   -1.25   0.000   0.200   0.000    0.00
   8.850   11.92    2.87   -1.10   0.000   0.200   0.000    0.00
   8.900   11.77    6.13   -1.38   0.000   0.200   0.000    0.00
   8.950   11.80    8.31   -1.62   0.000   0.200   0.000    0.00
   9.000   11.15    8.11   -1.44   0.000   0.200   0.000    0.00
   9.050   11.11    9.78   -1.26   0.000   0.200   0.000    0.00
   9.100   11.35    8.70   -1.70   0.000   0.200   0.000    0.00
   9.150   11.84    8.11   -0.94   0.000   0.200   0.000    0.00
   9.200   11.87    7.85   -0.35   0.000   0.200   0.000    0.00
   9.250   12.20    7.41   -0.71   0.000   0.200   0.000    0.00
   9.300   12.19    3.34   -1.90   0.000   0.200   0.000    0.00
   9.350   12.04    0.18   -1.64   0.000   0.200   0.000    0.00
   9.400   11.94   -2.43   -0.71   0.000   0.200   0.000    0.00
   9.450   12.29   -2.00   -0.07   0.000   0.200   0.000    0.00
   9.500   12.09   -0.14    0.21   0.000   0.200   0.000    0.00
   9.550   12.12   -1.78    0.30   0.000   0.200   0.000    0.00
   9.600   12.15   -0.13    0.37   0.000   0.200   0.000    0.00
   9.650   12.64    0.26   -0.80   0.000   0.200   0.000    0.00
   9.700   12.79    3.20   -1.23   0.000   0.200   0.000    0.00
   9.750   12.21    7.14   -1.25   0.000   0.200   0.000    0.00
   9.800   11.77    3.26   -0.06   0.000   0.200   0.000    0.00
   9.850   12.23    0.72   -0.41   0.000   0.200   0.000    0.00
   9.900   12.40   -4.73   -0.26   0.000   0.200   0.000    0.00
   9.950   12.58   -3.99    0.51   0.000   0.200   0.000    0.00
  10.000   12.53   -3.70    0.77   0.000   0.200   0.000    0.00
  10.050   12.86    0.15    0.86   0.000   0.200   0.000    0.00
  10.100   13.01    2.87    0.57   0.000   0.200   0.000    0.00
  10.150   13.32    0.31    0.70   0.000   0.200   0.000    0.00
  10.200   13.12   -0.75    0.21   0.000   0.200   0.000    0.00
  10.250   13.09   -0.46   -0.62   0.000   0.200   0.000    0.00
  10.300   12.62   -1.40   -0.49   0.000   0.200   0.000    0.00
  10.350   12.58   -2.56   -0.51   0.000   0.200   0.000    0.00
  10.400   12.64   -3.59   -1.26   0.000   0.200   0.000    0.00
  10.450   12.27   -3.00   -1.41   0.000   0.200   0.000    0.00
  10.500   12.20   -2.40   -1.51   0.000   0.200   0.000    0.00
  10.550   12.31   -1.34   -1.20   0.000   0.200   0.000    0.00
  10.600   12.59   -2.45   -0.88   0.000   0.200   0.000    0.00
  10.650   12.33    0.09   -1.02   0.000   0.200   0.000    0.00
  10.700   12.60    1.15   -0.38   0.000   0.200   0.000    0.00
  10.750   13.10    0.51   -0.23   0.000   0.200   0.000    0.00
  10.800   12.61    2.68   -0.93   0.000   0.200   0.000    0.00
  10.850   12.27    2.93   -1.10   0.000   0.200   0.000    0.00
  10.900   12.09    4.37   -0.98   0.000   0.200   0.000    0.00
  10.950   11.18    5.87   -1.10   0.000   0.200   0.000    0.00
  11.000   11.34   -1.01   -1.14   0.000   0.200   0.000    0.00
  11.050   11.96   -1.37   -0.47   0.000   0.200   0.000    0.00
  11.100   12.51   -0.56   -0.41   0.000   0.200   0.000    0.00
  11.150   12.60   -1.03    0.78   0.000   0.200   0.000    0.00
  11.200   12.47   -0.89    0.56   0.000   0.200   0.000    0.00
  11.250   12.39   -0.46   -0.08   0.000   0.200   0.000    0.00
  11.300   12.43   -0.33   -0.61   0.000   0.200   0.000    0.00
  11.350   11.74   -4.86   -0.95   0.000   0.200   0.000    0.00
  11.400   11.75   -2.39   -0.80   0.000   0.200   0.000    0.00
  11.450   11.69   -6.85   -0.92   0.000   0.200   0.000    0.00
  11.500   11.69   -8.62   -0.21   0.000   0.200   0.000    0.00
  11.550   10.86   -4.39   -1.10   0.000   0.200   0.000    0.00
  11.600   10.13   -5.66   -0.77   0.000   0.200   0.000    0.00
  11.650   10.80   -5.48   -0.94   0.000   0.200   0.000    0.00
  11.700   11.20   -8.48   -1.22   0.000   0.200   0.000    0.00
  11.750   10.57   -8.53   -1.06   0.000   0.200   0.000    0.00
  11.800   10.17  -11.62   -0.82   0.000   0.200   0.000    0.00
  11.850   10.76  -12.07   -0.53   0.000   0.200   0.000    0.00
  11.900   10.58   -9.84   -0.53   0.000   0.200   0.000    0.00
  11.950   10.04  -13.97   -0.46   0.000   0.200   0.000    0.00
  12.000   10.68  -13.90   -1.20   0.000   0.200   0.000    0.00
  12.050   10.70  -11.66   -1.01   0.000   0.200   0.000    0.00
  12.100   10.42  -11.28   -0.94   0.000   0.200   0.000    0.00
  12.150   10.69  -13.56   -1.25   0.000   0.200   0.000    0.00
  12.200   10.08  -16.67   -1.46   0.000   0.200   0.000    0.00
  12.250   10.55  -16.78   -2.38   0.000   0.200   0.000    0.00
  12.300   10.13  -14.07   -1.87   0.000   0.200   0.000    0.00
  12.350    9.84  -10.03   -3.13   0.000   0.200   0.000    0.00
  12.400   10.19  -16.51   -2.78   0.000   0.200   0.000    0.00
  12.450   10.36  -17.76   -1.69   0.000   0.200   0.000    0.00
  12.500   10.53  -18.06   -1.16   0.000   0.200   0.000    0.00
  12.550   10.39  -17.33   -0.55   0.000   0.200   0.000    0.00
  12.600   10.75  -13.58   -0.99   0.000   0.200   0.000    0.00
  12.650   10.98  -15.31   -0.96   0.000   0.200   0.000    0.00
  12.700   10.92  -13.72   -0.50   0.000   0.200   0.000    0.00
  12.750   10.35  -13.03   -0.47   0.000   0.200   0.000    0.00
  12.800   10.14  -13.71   -0.45   0.000   0.200   0.000    0.00
  12.850   10.26  -14.54   -0.50   0.000   0.200   0.000    0.00
  12.900   10.87  -18.29    0.17   0.000   0.200   0.000    0.00
  12.950   10.43  -16.73   -0.51   0.000   0.200   0.000    0.00
  13.000   10.63  -17.85   -0.47   0.000   0.200   0.000    0.00
  13.050   11.22  -18.08   -0.21   0.000   0.200   0.000    0.00
  13.100   11.28  -13.12   -0.61   0.000   0.200   0.000    0.00
  13.150   10.82  -13.12   -0.47   0.000   0.200   0.000    0.00
  13.200   10.40  -15.30   -0.33   0.000   0.200   0.000    0.00
  13.250   10.77  -16.62   -0.01   0.000   0.200   0.000    0.00
  13.300   10.72  -16.28   -0.50   0.000   0.200   0.000    0.00
  13.350   10.73  -15.56   -0.96   0.000   0.200   0.000    0.00
  13.400   11.56  -11.07   -0.62   0.000   0.200   0.000    0.00
  13.450   11.58  -14.19   -0.32   0.000   0.200   0.000    0.00
  13.500   11.27  -15.16   -0.30   0.000   0.200   0.000    0.00
  13.550   11.30  -14.08   -0.51   0.000   0.200   0.000    0.00
  13.600   11.53  -10.57   -0.13   0.000   0.200   0.000    0.00
  13.650   11.48   -8.46   -0.45   0.000   0.200   0.000    0.00
  13.700   11.64   -2.76   -0.84   0.000   0.200   0.000    0.00
  13.750   11.54   -1.80   -0.96   0.000   0.200   0.000    0.00
  13.800   10.89    3.34   -1.23   0.000   0.200   0.000    0.00
  13.850   10.68   -1.72   -1.23   0.000   0.200   0.000    0.00
  13.900   10.91   -4.86   -1.24   0.000   0.200   0.000    0.00
  13.950   10.36   -3.73   -1.22   0.000   0.200   0.000    0.00
  14.000   11.12   -2.14   -1.37   0.000   0.200   0.000    0.00
  14.050   11.12   -0.67   -2.08   0.000   0.200   0.000    0.00
  14.100   11.47   -1.33   -1.70   0.000   0.200   0.000    0.00
  14.150   11.55    0.53   -2.41   0.000   0.200   0.000    0.00
  14.200   11.69   -0.91   -2.25   0.000   0.200   0.000    0.00
  14.250   11.10   -0.90   -1.97   0.000   0.200   0.000    0.00
  14.300   11.09    0.67   -2.27   0.000   0.200   0.000    0.00
  14.350   11.60    3.52   -2.75   0.000   0.200   0.000    0.00
  14.400   12.46    2.96   -2.97   0.000   0.200   0.000    0.00
  14.450   11.93   -0.62   -2.56   0.000   0.200   0.000    0.00
  14.500   11.16   -2.11   -2.31   0.000   0.200   0.000    0.00
  14.550   11.18   -2.39   -2.29   0.000   0.200   0.000    0.00
  14.600   11.25   -4.74   -2.44   0.000   0.200   0.000    0.00
  14.650   11.35   -4.89   -2.31   0.000   0.200   0.000    0.00
  14.700   11.44   -7.74   -1.97   0.000   0.200   0.000    0.00
  14.750   11.87   -8.61   -2.39   0.000   0.200   0.000    0.00
  14.800   12.44   -9.72   -2.43   0.000   0.200   0.000    0.00
  14.850   12.34  -10.20   -1.70   0.000   0.200   0.000    0.00
  14.900   12.39   -8.06   -1.83   0.000   0.200   0.000    0.00
  14.950   12.06   -6.40   -1.54   0.000   0.200   0.000    0.00
  15.000   11.62   -5.40   -0.43   0.000   0.200   0.000    0.00
  15.050   12.18   -6.85   -0.38   0.000   0.200   0.000    0.00
  15.100   12.76   -9.07   -0.16   0.000   0.200   0.000    0.00
  15.150   11.79  -10.48    0.47   0.000   0.200   0.000    0.00
  15.200   11.12   -9.86    0.09   0.000   0.200   0.000    0.00
  15.250   11.70   -8.12   -0.46   0.000   0.200   0.000    0.00
  15.300   12.38   -7.69    0.21   0.000   0.200   0.000    0.00
  15.350   12.23  -12.01    0.93   0.000   0.200   0.000    0.00
  15.400   12.92   -9.71    0.19   0.000   0.200   0.000    0.00
  15.450   12.69   -5.22   -0.08   0.000   0.200   0.000    0.00
  15.500   12.70   -6.14   -0.32   0.000   0.200   0.000    0.00
  15.550   12.75   -2.83   -0.14   0.000   0.200   0.000    0.00
  15.600   12.38   -2.86   -0.83   0.000   0.200   0.000    0.00
  15.650   12.78   -3.81   -0.64   0.000   0.200   0.000    0.00
  15.700   12.96   -2.63   -0.55   0.000   0.200   0.000    0.00
  15.750   12.79   -3.20   -0.43   0.000   0.200   0.000    0.00
  15.800   12.82   -2.22   -0.45   0.000   0.200   0.000    0.00
  15.850   13.28   -0.25    0.09   0.000   0.200   0.000    0.00
  15.900   13.40   -2.75    0.30   0.000   0.200   0.000    0.00
  15.950   13.90   -3.53   -0.09   0.000   0.200   0.000    0.00
  16.000   14.22   -1.48   -0.61   0.000   0.200   0.000    0.00
  16.050   15.00   -2.35   -1.76   0.000   0.200   0.000    0.00
  16.100   14.63   -2.95   -1.97   0.000   0.200   0.000    0.00
  16.150   14.63   -0.88   -1.82   0.000   0.200   0.000    0.00
  16.200   15.08    0.01   -1.28   0.000   0.200   0.000    0.00
  16.250   14.93    0.53   -2.22   0.000   0.200   0.000    0.00
  16.300   14.29   -0.28   -2.29   0.000   0.200   0.000    0.00
  16.350   14.20    2.50   -2.18   0.000   0.200   0.000    0.00
  16.400   13.82    2.04   -2.30   0.000   0.200   0.000    0.00
  16.450   13.18   -0.56   -2.53   0.000   0.200   0.000    0.00
  16.500   12.60   -0.46   -2.29   0.000   0.200   0.000    0.00
  16.550   12.90    1.33   -2.18   0.000   0.200   0.000    0.00
  16.600   12.87    4.03   -1.90   0.000   0.200   0.000    0.00
  16.650   12.33    2.74   -1.87   0.000   0.200   0.000    0.00
  16.700   12.06    2.87   -1.45   0.000   0.200   0.000    0.00
  16.750   12.15    5.33   -1.12   0.000   0.200   0.000    0.00
  16.800   12.94    6.27   -1.27   0.000   0.200   0.000    0.00
  16.850   12.87    6.70   -0.83   0.000   0.200   0.000    0.00
  16.900   12.76    9.85   -1.33   0.000   0.200   0.000    0.00
  16.950   12.18    8.79   -1.25   0.000   0.200   0.000    0.00
  17.000   12.21    8.23   -1.00   0.000   0.200   0.000    0.00
  17.050   12.24   10.32   -1.10   0.000   0.200   0.000    0.00
  17.100   12.07    7.83   -0.31   0.000   0.200   0.000    0.00
  17.150   11.62    3.24   -0.27   0.000   0.200   0.000    0.00
  17.200   11.65    2.91    0.12   0.000   0.200   0.000    0.00
  17.250   11.50    5.59    0.64   0.000   0.200   0.000    0.00
  17.300   11.14    3.99   -0.21   0.000   0.200   0.000    0.00
  17.350   11.47    4.45   -0.18   0.000   0.200   0.000    0.00
  17.400   11.86    2.21   -0.21   0.000   0.200   0.000    0.00
  17.450   11.27    1.27    0.45   0.000   0.200   0.000    0.00
  17.500   11.56   -0.78    0.42   0.000   0.200   0.000    0.00
  17.550   12.18   -0.78    0.90   0.000   0.200   0.000    0.00
  17.600   12.35   -4.75    0.46   0.000   0.200   0.000    0.00
  17.650   12.58   -5.40    0.54   0.000   0.200   0.000    0.00
  17.700   11.89   -0.75    1.21   0.000   0.200   0.000    0.00
  17.750   12.19   -1.02    0.50   0.000   0.200   0.000    0.00
  17.800   12.20    2.40    0.35   0.000   0.200   0.000    0.00
  17.850   12.31    0.82    0.09   0.000   0.200   0.000    0.00
  17.900   12.61    0.58    0.04   0.000   0.200   0.000    0.00
  17.950   12.83    1.21    0.23   0.000   0.200   0.000    0.00
  18.000   12.56    3.97    0.50   0.000   0.200   0.000    0.00
  18.050   12.76    4.03    0.51   0.000   0.200   0.000    0.00
  18.100   13.15    3.42    0.10   0.000   0.200   0.000    0.00
  18.150   12.82    6.54   -0.18   0.000   0.200   0.000    0.00
  18.200   13.14    5.06    0.07   0.000   0.200   0.000    0.00
  18.250   13.01    2.91    0.47   0.000   0.200   0.000    0.00
  18.300   13.01    3.05    0.08   0.000   0.200   0.000    0.00
  18.350   12.02    2.99    0.34   0.000   0.200   0.000    0.00
  18.400   12.60    6.25    0.25   0.000   0.200   0.000    0.00
  18.450   12.83    6.25    0.38   0.000   0.200   0.000    0.00
  18.500   12.60    4.21    1.21   0.000   0.200   0.000    0.00
  18.550   12.59    2.10    1.10   0.000   0.200   0.000    0.00
  18.600   12.38    2.86    1.43   0.000   0.200   0.000    0.00
  18.650   11.91    3.22    0.88   0.000   0.200   0.000    0.00
  18.700   11.58    3.86    0.46   0.000   0.200   0.000    0.00
  18.750   11.71    4.54    0.58   0.000   0.200   0.000    0.00
  18.800   11.51    5.15    0.37   0.000   0.200   0.000    0.00
  18.850   11.74    3.41    0.20   0.000   0.200   0.000    0.00
  18.900   11.95    4.88    0.79   0.000   0.200   0.000    0.00
  18.950   12.49    5.64    1.50   0.000   0.200   0.000    0.00
  19.000   12.91    8.61    1.03   0.000   0.200   0.000    0.00
  19.050   12.72    7.72    0.84   0.000   0.200   0.000    0.00
  19.100   13.14    6.84    0.37   0.000   0.200   0.000    0.00
  19.150   13.43    6.14    0.15   0.000   0.200   0.000    0.00
  19.200   13.48    5.58    0.14   0.000   0.200   0.000    0.00
  19.250   13.05    7.48   -0.06   0.000   0.200   0.000    0.00
  19.300   12.22    2.83   -0.52   0.000   0.200   0.000    0.00
  19.350   12.66    4.17   -0.41   0.000   0.200   0.000    0.00
  19.400   12.66    2.61   -0.27   0.000   0.200   0.000    0.00
  19.450   12.17    1.38    0.46   0.000   0.200   0.000    0.00
  19.500   12.48    2.26    0.85   0.000   0.200   0.000    0.00
  19.550   12.23    4.93    1.76   0.000   0.200   0.000    0.00
  19.600   12.29    5.97    2.48   0.000   0.200   0.000    0.00
  19.650   12.47    5.66    3.15   0.000   0.200   0.000    0.00
  19.700   12.92    4.10    2.70   0.000   0.200   0.000    0.00
  19.750   12.32    2.28    2.79   0.000   0.200   0.000    0.00
  19.800   12.17    6.05    3.25   0.000   0.200   0.000    0.00
  19.850   12.26    2.23    2.30   0.000   0.200   0.000    0.00
  19.900   12.34   -0.67    2.05   0.000   0.200   0.000    0.00
  19.950   12.20   -1.14    2.00   0.000   0.200   0.000    0.00
  20.000   12.19   -2.15    1.64   0.000   0.200   0.000    0.00
  20.050   11.83   -1.42    1.49   0.000   0.200   0.000    0.00
  20.100   11.47   -3.58    1.45   0.000   0.200   0.000    0.00
  20.150   11.25   -5.46    1.51   0.000   0.200   0.000    0.00
  20.200   11.42   -6.94    1.70   0.000   0.200   0.000    0.00
  20.250   11.48   -9.56    1.66   0.000   0.200   0.000    0.00
  20.300   11.51   -8.50    0.99   0.000   0.200   0.000    0.00
  20.350   12.00   -8.24    1.48   0.000   0.200   0.000    0.00
  20.400   12.22   -7.12    1.81   0.000   0.200   0.000    0.00
  20.450   12.10   -6.62    0.92   0.000   0.200   0.000    0.00
  20.500   12.33   -6.87    0.82   0.000   0.200   0.000    0.00
  20.550   12.06   -7.96    1.34   0.000   0.200   0.000    0.00
  20.600   12.23   -5.60    0.38   0.000   0.200   0.000    0.00
  20.650   11.94   -5.95    1.16   0.000   0.200   0.000    0.00
  20.700   10.83   -2.17    1.18   0.000   0.200   0.000    0.00
  20.750   11.22   -3.58    1.03   0.000   0.200   0.000    0.00
  20.800   11.27   -3.49    1.29   0.000   0.200   0.000    0.00
  20.850   11.12   -2.22    1.26   0.000   0.200   0.000    0.00
  20.900   11.74   -7.62    1.81   0.000   0.200   0.000    0.00
  20.950   11.51   -4.19    1.38   0.000   0.200   0.000    0.00
  21.000   11.02   -2.05    0.84   0.000   0.200   0.000    0.00
  21.050   10.85   -5.11   -0.19   0.000   0.200   0.000    0.00
  21.100   11.33   -3.22   -0.21   0.000   0.200   0.000    0.00
  21.150   11.08   -2.15    0.68   0.000   0.200   0.000    0.00
  21.200   10.38    0.22    0.88   0.000   0.200   0.000    0.00
  21.250   11.37    2.93    1.09   0.000   0.200   0.000    0.00
  21.300   11.92    3.87    1.74   0.000   0.200   0.000    0.00
  21.350   11.64    3.20    1.75   0.000   0.200   0.000    0.00
  21.400   11.96    3.08    1.10   0.000   0.200   0.000    0.00
  21.450   12.09    3.53    0.77   0.000   0.200   0.000    0.00
  21.500   12.85    2.37    0.00   0.000   0.200   0.000    0.00
  21.550   13.40    2.74    0.29   0.000   0.200   0.000    0.00
  21.600   13.65    2.57   -0.03   0.000   0.200   0.000    0.00
  21.650   13.06    4.58   -0.10   0.000   0.200   0.000    0.00
  21.700   13.28    5.94   -0.42   0.000   0.200   0.000    0.00
  21.750   13.90    3.88   -0.93   0.000   0.200   0.000    0.00
  21.800   14.44    2.84   -1.26   0.000   0.200   0.000    0.00
  21.850   15.02    3.56   -0.76   0.000   0.200   0.000    0.00
  21.900   15.12    4.40   -0.34   0.000   0.200   0.000    0.00
  21.950   15.10   -0.17   -0.69   0.000   0.200   0.000    0.00
  22.000   14.58   -1.81   -0.20   0.000   0.200   0.000    0.00
  22.050   14.36   -2.32   -0.46   0.000   0.200   0.000    0.00
  22.100   13.54    0.98   -0.89   0.000   0.200   0.000    0.00
  22.150   13.68    1.02   -1.17   0.000   0.200   0.000    0.00
  22.200   13.74   -1.98   -0.63   0.000   0.200   0.000    0.00
  22.250   13.63   -0.64   -0.56   0.000   0.200   0.000    0.00
  22.300   14.06   -0.40   -0.58   0.000   0.200   0.000    0.00
  22.350   14.40   -2.55    0.63   0.000   0.200   0.000    0.00