! This hub-height wind-speed file was generated by TurbSim (v1.06.00, 21-Sep-2012) on 03-Feb-2018 at 23:33:21.
!
! The requested statistics for this data were:
!    Mean Total Wind Speed =   21.000 m/s
!    Turbulence Intensity  =   14.233%
!
!   Time  HorSpd  WndDir  VerSpd  HorShr  VerShr  LnVShr  GstSpd
!  (sec)   (m/s)   (deg)   (m/s)     (-)     (-)     (-)   (m/s)
   0.000   23.22  -13.17    0.17   0.000   0.200   0.000    0.00
   0.050   23.39  -14.47   -0.02   0.000   0.200   0.000    0.00
   0.100   24.49  -14.99   -0.29   0.000   0.200   0.000    0.00
   0.150   24.56  -13.00   -0.10   0.000   0.200   0.000    0.00
   0.200   24.42  -12.14    0.31   0.000   0.200   0.000    0.00
   0.250   24.66  -13.86    0.51   0.000   0.200   0.000    0.00
   0.300   24.20  -13.61   -0.37   0.000   0.200   0.000    0.00
   0.350   24.31  -14.03    0.35   0.000   0.200   0.000    0.00
   0.400   24.64  -11.17   -0.31   0.000   0.200   0.000    0.00
   0.450   25.62   -9.22    0.35   0.000   0.200   0.000    0.00
   0.500   25.45   -9.75    1.60   0.000   0.200   0.000    0.00
   0.550   24.99   -8.08    1.89   0.000   0.200   0.000    0.00
   0.600   24.61  -10.51    1.36   0.000   0.200   0.000    0.00
   0.650   25.30  -10.21    0.21   0.000   0.200   0.000    0.00
   0.700   24.64   -7.81   -0.08   0.000   0.200   0.000    0.00
   0.750   24.07   -8.08    0.16   0.000   0.200   0.000    0.00
   0.800   23.34   -6.61   -0.77   0.000   0.200   0.000    0.00
   0.850   23.01   -5.20   -1.21   0.000   0.200   0.000    0.00
   0.900   23.00   -5.14   -1.55   0.000   0.200   0.000    0.00
   0.950   23.13   -6.69   -1.30   0.000   0.200   0.000    0.00
   1.000   23.59   -4.70   -0.94   0.000   0.200   0.000    0.00
   1.050   22.52   -5.79   -1.41   0.000   0.200   0.000    0.00
   1.100   22.55   -4.90   -1.59   0.000   0.200   0.000    0.00
   1.150   21.14   -5.59   -1.64   0.000   0.200   0.000    0.00
   1.200   20.84   -6.39   -0.93   0.000   0.200   0.000    0.00
   1.250   21.05   -5.91   -0.14   0.000   0.200   0.000    0.00
   1.300   21.31   -7.49   -0.65   0.000   0.200   0.000    0.00
   1.350   22.03   -7.56   -0.02   0.000   0.200   0.000    0.00
   1.400   22.20   -6.95    0.09   0.000   0.200   0.000    0.00
   1.450   21.87   -7.79   -0.82   0.000   0.200   0.000    0.00
   1.500   21.29   -9.16   -0.65   0.000   0.200   0.000    0.00
   1.550   21.60   -9.24    0.45   0.000   0.200   0.000    0.00
   1.600   21.15   -9.85    0.63   0.000   0.200   0.000    0.00
   1.650   21.45   -7.65    1.25   0.000   0.200   0.000    0.00
   1.700   20.74   -7.92    1.44   0.000   0.200   0.000    0.00
   1.750   20.16   -9.05    1.37   0.000   0.200   0.000    0.00
   1.800   19.93  -11.38    1.97   0.000   0.200   0.000    0.00
   1.850   19.99  -12.65    1.97   0.000   0.200   0.000    0.00
   1.900   20.18  -12.55    0.93   0.000   0.200   0.000    0.00
   1.950   21.03  -12.87    1.05   0.000   0.200   0.000    0.00
   2.000   20.97  -12.10   -0.12   0.000   0.200   0.000    0.00
   2.050   20.41   -9.88   -0.15   0.000   0.200   0.000    0.00
   2.100   20.97   -9.76    0.19   0.000   0.200   0.000    0.00
   2.150   21.82  -11.32   -0.24   0.000   0.200   0.000    0.00
   2.200   21.45   -8.66   -0.64   0.000   0.200   0.000    0.00
   2.250   20.87   -9.11   -1.98   0.000   0.200   0.000    0.00
   2.300   20.81  -12.23   -2.07   0.000   0.200   0.000    0.00
   2.350   20.72  -11.66   -1.40   0.000   0.200   0.000    0.00
   2.400   20.28  -10.09   -1.49   0.000   0.200   0.000    0.00
   2.450   20.60   -9.85   -2.37   0.000   0.200   0.000    0.00
   2.500   19.83   -6.95   -2.89   0.000   0.200   0.000    0.00
   2.550   20.08  -10.59   -3.37   0.000   0.200   0.000    0.00
   2.600   20.48   -9.85   -2.63   0.000   0.200   0.000    0.00
   2.650   19.73  -10.67   -2.07   0.000   0.200   0.000    0.00
   2.700   20.67   -8.27   -0.30   0.000   0.200   0.000    0.00
   2.750   20.86   -4.74   -0.26   0.000   0.200   0.000    0.00
   2.800   21.29   -2.58   -0.81   0.000   0.200   0.000    0.00
   2.850   21.67   -4.99   -0.62   0.000   0.200   0.000    0.00
   2.900   22.39   -4.35   -1.16   0.000   0.200   0.000    0.00
   2.950   22.57   -5.52    0.11   0.000   0.200   0.000    0.00
   3.000   23.12   -6.57   -1.04   0.000   0.200   0.000    0.00
   3.050   22.76   -4.71   -1.13   0.000   0.200   0.000    0.00
   3.100   22.97   -2.98    0.08   0.000   0.200   0.000    0.00
   3.150   22.70   -5.02   -0.06   0.000   0.200   0.000    0.00
   3.200   23.01   -5.13    0.31   0.000   0.200   0.000    0.00
   3.250   22.92   -2.30    0.58   0.000   0.200   0.000    0.00
   3.300   22.16   -2.42   -0.16   0.000   0.200   0.000    0.00
   3.350   22.01   -3.98    1.45   0.000   0.200   0.000    0.00
   3.400   22.78   -5.13    1.00   0.000   0.200   0.000    0.00
   3.450   23.07   -3.92   -0.13   0.000   0.200   0.000    0.00
   3.500   23.16   -3.83    0.65   0.000   0.200   0.000    0.00
   3.550   22.78   -4.73    0.29   0.000   0.200   0.000    0.00
   3.600   22.61   -5.40    0.81   0.000   0.200   0.000    0.00
   3.650   22.30   -7.38    1.37   0.000   0.200   0.000    0.00
   3.700   21.06   -7.39    0.44   0.000   0.200   0.000    0.00
   3.750   22.10   -8.36    1.15   0.000   0.200   0.000    0.00
   3.800   23.24   -8.54    0.87   0.000   0.200   0.000    0.00
   3.850   23.22   -6.65    0.39   0.000   0.200   0.000    0.00
   3.900   23.33   -7.40    0.18   0.000   0.200   0.000    0.00
   3.950   23.99   -7.81    0.66   0.000   0.200   0.000    0.00
   4.000   23.21   -8.41    0.43   0.000   0.200   0.000    0.00
   4.050   22.43   -8.65    0.93   0.000   0.200   0.000    0.00
   4.100   23.26  -12.32    2.79   0.000   0.200   0.000    0.00
   4.150   23.67  -15.42    2.30   0.000   0.200   0.000    0.00
   4.200   24.08  -16.69    1.62   0.000   0.200   0.000    0.00
   4.250   24.74  -16.78    1.93   0.000   0.200   0.000    0.00
   4.300   25.62  -17.31    1.40   0.000   0.200   0.000    0.00
   4.350   26.44  -15.38    1.48   0.000   0.200   0.000    0.00
   4.400   26.11  -15.35    1.93   0.000   0.200   0.000    0.00
   4.450   25.02  -14.99    1.73   0.000   0.200   0.000    0.00
   4.500   24.89  -11.69    1.74   0.000   0.200   0.000    0.00
   4.550   24.65   -8.94    1.27   0.000   0.200   0.000    0.00
   4.600   24.53   -8.08   -0.16   0.000   0.200   0.000    0.00
   4.650   25.86   -9.52   -0.65   0.000   0.200   0.000    0.00
   4.700   25.88  -10.42    0.00   0.000   0.200   0.000    0.00
   4.750   25.77  -11.29   -0.13   0.000   0.200   0.000    0.00
   4.800   24.97   -9.67   -0.45   0.000   0.200   0.000    0.00
   4.850   24.23   -7.19    0.52   0.000   0.200   0.000    0.00
   4.900   25.04   -9.71    0.89   0.000   0.200   0.000    0.00
   4.950   24.85  -11.08    0.44   0.000   0.200   0.000    0.00
   5.000   23.89   -8.55    1.10   0.000   0.200   0.000    0.00
   5.050   23.63   -9.35    1.36   0.000   0.200   0.000    0.00
   5.100   24.05   -9.08    1.25   0.000   0.200   0.000    0.00
   5.150   24.56   -8.22    1.48   0.000   0.200   0.000    0.00
   5.200   24.62   -9.47    1.26   0.000   0.200   0.000    0.00
   5.250   26.07   -9.54    1.61   0.000   0.200   0.000    0.00
   5.300   26.29   -8.95    0.31   0.000   0.200   0.000    0.00
   5.350   24.96  -10.20    1.15   0.000   0.200   0.000    0.00
   5.400   24.85  -10.02    0.31   0.000   0.200   0.000    0.00
   5.450   25.05   -9.82    1.32   0.000   0.200   0.000    0.00
   5.500   24.55  -10.62    1.27   0.000   0.200   0.000    0.00
   5.550   23.88   -9.73    1.21   0.000   0.200   0.000    0.00
   5.600   23.80   -9.36    2.05   0.000   0.200   0.000    0.00
   5.650   23.25  -12.24    1.78   0.000   0.200   0.000    0.00
   5.700   22.46  -13.40    1.98   0.000   0.200   0.000    0.00
   5.750   22.25  -14.43    2.20   0.000   0.200   0.000    0.00
   5.800   22.87  -14.96    1.69   0.000   0.200   0.000    0.00
   5.850   23.26  -16.41    1.34   0.000   0.200   0.000    0.00
   5.900   22.68  -14.96    2.40   0.000   0.200   0.000    0.00
   5.950   22.83  -15.65    2.16   0.000   0.200   0.000    0.00
   6.000   23.16  -14.15    1.45   0.000   0.200   0.000    0.00
   6.050   22.89  -14.41    2.53   0.000   0.200   0.000    0.00
   6.100   23.33  -12.91    0.57   0.000   0.200   0.000    0.00
   6.150   23.58  -14.63    0.42   0.000   0.200   0.000    0.00
   6.200   23.48  -13.58    0.87   0.000   0.200   0.000    0.00
   6.250   23.53  -14.76    1.20   0.000   0.200   0.000    0.00
   6.300   22.65  -18.19    1.18   0.000   0.200   0.000    0.00
   6.350   22.35  -16.50    1.22   0.000   0.200   0.000    0.00
   6.400   23.29  -14.81    1.68   0.000   0.200   0.000    0.00
   6.450   23.42  -15.44    1.91   0.000   0.200   0.000    0.00
   6.500   23.77  -17.08    0.33   0.000   0.200   0.000    0.00
   6.550   23.43  -16.77   -0.42   0.000   0.200   0.000    0.00
   6.600   23.43  -15.72    0.35   0.000   0.200   0.000    0.00
   6.650   22.77  -11.50    0.20   0.000   0.200   0.000    0.00
   6.700   22.10   -8.23   -0.78   0.000   0.200   0.000    0.00
   6.750   22.94   -8.40   -1.75   0.000   0.200   0.000    0.00
   6.800   23.81   -6.60   -0.48   0.000   0.200   0.000    0.00
   6.850   24.92   -5.43   -1.02   0.000   0.200   0.000    0.00
   6.900   23.76   -5.93   -1.56   0.000   0.200   0.000    0.00
   6.950   23.60   -6.70   -1.61   0.000   0.200   0.000    0.00
   7.000   23.11   -8.22   -0.53   0.000   0.200   0.000    0.00
   7.050   22.77   -8.44   -0.81   0.000   0.200   0.000    0.00
   7.100   23.47   -7.55   -1.31   0.000   0.200   0.000    0.00
   7.150   23.19   -8.76   -0.65   0.000   0.200   0.000    0.00
   7.200   22.93   -6.59   -0.24   0.000   0.200   0.000    0.00
   7.250   23.06   -6.63   -0.59   0.000   0.200   0.000    0.00
   7.300   21.76   -4.38   -0.92   0.000   0.200   0.000    0.00
   7.350   21.24   -3.32   -1.28   0.000   0.200   0.000    0.00
   7.400   21.69   -3.33   -0.93   0.000   0.200   0.000    0.00
   7.450   22.71   -1.28   -0.73   0.000   0.200   0.000    0.00
   7.500   22.61   -4.72   -0.85   0.000   0.200   0.000    0.00
   7.550   22.57   -7.53   -1.42   0.000   0.200   0.000    0.00
   7.600   22.07   -6.39   -1.54   0.000   0.200   0.000    0.00
   7.650   21.72   -5.26   -0.38   0.000   0.200   0.000    0.00
   7.700   22.85   -8.43   -0.13   0.000   0.200   0.000    0.00
   7.750   22.36   -5.26    0.10   0.000   0.200   0.000    0.00
   7.800   22.14   -3.61    0.11   0.000   0.200   0.000    0.00
   7.850   22.39   -4.07    0.18   0.000   0.200   0.000    0.00
   7.900   22.35   -1.59   -0.05   0.000   0.200   0.000    0.00
   7.950   22.72    0.00    1.17   0.000   0.200   0.000    0.00
   8.000   22.61    1.80    1.50   0.000   0.200   0.000    0.00
   8.050   22.77    2.63    0.62   0.000   0.200   0.000    0.00
   8.100   22.14   -0.13    0.32   0.000   0.200   0.000    0.00
   8.150   21.89    0.60    0.26   0.000   0.200   0.000    0.00
   8.200   22.32   -1.89    0.95   0.000   0.200   0.000    0.00
   8.250   22.78   -1.42   -0.90   0.000   0.200   0.000    0.00
   8.300   23.23    1.41   -1.18   0.000   0.200   0.000    0.00
   8.350   22.25    2.16   -0.77   0.000   0.200   0.000    0.00
   8.400   21.69    0.88   -0.72   0.000   0.200   0.000    0.00
   8.450   21.47   -0.76   -0.20   0.000   0.200   0.000    0.00
   8.500   21.60    0.11    0.01   0.000   0.200   0.000    0.00
   8.550   21.44   -4.04    0.04   0.000   0.200   0.000    0.00
   8.600   22.75   -0.58    1.01   0.000   0.200   0.000    0.00
   8.650   24.14   -0.34    1.97   0.000   0.200   0.000    0.00
   8.700   24.73   -4.76    1.01   0.000   0.200   0.000    0.00
   8.750   25.57   -4.82    0.51   0.000   0.200   0.000    0.00
   8.800   25.62   -4.32    0.63   0.000   0.200   0.000    0.00
   8.850   25.46   -3.95    1.47   0.000   0.200   0.000    0.00
   8.900   25.01   -5.22    2.72   0.000   0.200   0.000    0.00
   8.950   24.39   -3.20    1.92   0.000   0.200   0.000    0.00
   9.000   24.58   -4.10    1.95   0.000   0.200   0.000    0.00
   9.050   24.25   -4.29    2.37   0.000   0.200   0.000    0.00
   9.100   24.13   -4.63    1.88   0.000   0.200   0.000    0.00
   9.150   25.04   -3.67    2.29   0.000   0.200   0.000    0.00
   9.200   24.64   -2.89    2.15   0.000   0.200   0.000    0.00
   9.250   24.21   -4.68    1.98   0.000   0.200   0.000    0.00
   9.300   24.72   -3.20    1.63   0.000   0.200   0.000    0.00
   9.350   24.33   -3.86    1.60   0.000   0.200   0.000    0.00
   9.400   24.21   -1.18    1.10   0.000   0.200   0.000    0.00
   9.450   24.37    0.00   -0.02   0.000   0.200   0.000    0.00
   9.500   24.30    1.67   -0.16   0.000   0.200   0.000    0.00
   9.550   24.49    2.46   -0.35   0.000   0.200   0.000    0.00
   9.600   23.84    1.74   -0.63   0.000   0.200   0.000    0.00
   9.650   23.79    0.85   -0.91   0.000   0.200   0.000    0.00
   9.700   24.48    1.66   -0.73   0.000   0.200   0.000    0.00
   9.750   24.29   -0.30    0.00   0.000   0.200   0.000    0.00
   9.800   24.21    1.54    0.50   0.000   0.200   0.000    0.00
   9.850   25.25    1.34   -0.29   0.000   0.200   0.000    0.00
   9.900   24.16    0.44   -0.73   0.000   0.200   0.000    0.00
   9.950   23.76    0.77   -0.44   0.000   0.200   0.000    0.00
  10.000   23.25    2.69   -1.56   0.000   0.200   0.000    0.00
  10.050   23.67    1.82   -1.60   0.000   0.200   0.000    0.00
  10.100   24.26   -0.25   -1.54   0.000   0.200   0.000    0.00
  10.150   24.71   -0.79   -2.25   0.000   0.200   0.000    0.00
  10.200   23.92   -3.11   -1.39   0.000   0.200   0.000    0.00
  10.250   23.49   -3.75   -1.04   0.000   0.200   0.000    0.00
  10.300   23.23   -4.14   -1.26   0.000   0.200   0.000    0.00
  10.350   23.25   -4.28   -0.86   0.000   0.200   0.000    0.00
  10.400   22.90   -1.30   -1.13   0.000   0.200   0.000    0.00
  10.450   22.75    0.50   -0.85   0.000   0.200   0.000    0.00
  10.500   23.05    0.62   -1.36   0.000   0.200   0.000    0.00
  10.550   22.73   -0.84   -0.66   0.000   0.200   0.000    0.00
  10.600   21.97    1.02   -1.31   0.000   0.200   0.000    0.00
  10.650   20.90    1.44   -0.77   0.000   0.200   0.000    0.00
  10.700   20.70   -1.09   -0.87   0.000   0.200   0.000    0.00
  10.750   20.83   -1.28   -0.96   0.000   0.200   0.000    0.00
  10.800   20.73   -4.60   -0.90   0.000   0.200   0.000    0.00
  10.850   20.56   -1.71   -0.77   0.000   0.200   0.000    0.00
  10.900   20.33    0.51   -0.88   0.000   0.200   0.000    0.00
  10.950   20.14   -1.50   -1.50   0.000   0.200   0.000    0.00
  11.000   20.40   -5.41   -0.97   0.000   0.200   0.000    0.00
  11.050   20.37   -3.45   -1.16   0.000   0.200   0.000    0.00
  11.100   19.16   -5.40    0.04   0.000   0.200   0.000    0.00
  11.150   19.26   -8.30    0.19   0.000   0.200   0.000    0.00
  11.200   19.17   -6.85   -1.75   0.000   0.200   0.000    0.00
  11.250   19.12   -5.75   -0.66   0.000   0.200   0.000    0.00
  11.300   19.43   -4.09    0.50   0.000   0.200   0.000    0.00
  11.350   20.12   -3.48   -0.25   0.000   0.200   0.000    0.00
  11.400   20.24   -0.70    0.32   0.000   0.200   0.000    0.00
  11.450   18.74   -2.72    0.14   0.000   0.200   0.000    0.00
  11.500   18.23   -2.45    0.51   0.000   0.200   0.000    0.00
  11.550   19.08   -2.94    0.63   0.000   0.200   0.000    0.00
  11.600   19.60   -5.31    0.89   0.000   0.200   0.000    0.00
  11.650   19.35   -4.09    0.74   0.000   0.200   0.000    0.00
  11.700   20.36   -2.57    0.91   0.000   0.200   0.000    0.00
  11.750   20.38   -0.05    0.43   0.000   0.200   0.000    0.00
  11.800   19.85   -0.93   -0.55   0.000   0.200   0.000    0.00
  11.850   19.27    0.19   -1.05   0.000   0.200   0.000    0.00
  11.900   19.06    1.01    0.12   0.000   0.200   0.000    0.00
  11.950   17.85   -0.36    0.56   0.000   0.200   0.000    0.00
  12.000   18.82    1.39   -0.79   0.000   0.200   0.000    0.00
  12.050   19.25    0.21   -0.80   0.000   0.200   0.000    0.00
  12.100   19.49    0.20   -0.92   0.000   0.200   0.000    0.00
  12.150   19.06   -0.58   -1.04   0.000   0.200   0.000    0.00
  12.200   19.48   -2.81   -0.66   0.000   0.200   0.000    0.00
  12.250   19.67    0.42   -0.69   0.000   0.200   0.000    0.00
  12.300   21.34   -1.39   -1.08   0.000   0.200   0.000    0.00
  12.350   21.44   -2.52   -1.45   0.000   0.200   0.000    0.00
  12.400   21.39   -0.27   -1.43   0.000   0.200   0.000    0.00
  12.450   21.35   -0.17   -1.20   0.000   0.200   0.000    0.00
  12.500   21.50    0.95   -0.38   0.000   0.200   0.000    0.00
  12.550   20.97    1.25    0.36   0.000   0.200   0.000    0.00
  12.600   19.99   -1.30    1.70   0.000   0.200   0.000    0.00
  12.650   19.97   -4.38    1.57   0.000   0.200   0.000    0.00
  12.700   19.47   -5.18    1.37   0.000   0.200   0.000    0.00
  12.750   19.82   -3.79    1.01   0.000   0.200   0.000    0.00
  12.800   19.29   -4.80    1.96   0.000   0.200   0.000    0.00
  12.850   19.30   -4.29    2.29   0.000   0.200   0.000    0.00
  12.900   18.38   -6.39    2.16   0.000   0.200   0.000    0.00
  12.950   18.70   -7.97    1.69   0.000   0.200   0.000    0.00
  13.000   19.88   -6.97    0.99   0.000   0.200   0.000    0.00
  13.050   20.84   -7.30    0.62   0.000   0.200   0.000    0.00
  13.100   20.78   -5.15   -0.83   0.000   0.200   0.000    0.00
  13.150   20.31   -3.98   -0.09   0.000   0.200   0.000    0.00
  13.200   19.20   -2.93    0.98   0.000   0.200   0.000    0.00
  13.250   19.89   -2.40    2.19   0.000   0.200   0.000    0.00
  13.300   21.18   -3.05    1.28   0.000   0.200   0.000    0.00
  13.350   20.99   -1.54    1.03   0.000   0.200   0.000    0.00
  13.400   21.57    1.42    1.63   0.000   0.200   0.000    0.00
  13.450   21.70    1.05    1.58   0.000   0.200   0.000    0.00
  13.500   21.06   -0.72    1.90   0.000   0.200   0.000    0.00
  13.550   19.71   -0.90    0.46   0.000   0.200   0.000    0.00
  13.600   20.38   -3.51   -0.15   0.000   0.200   0.000    0.00
  13.650   20.20   -5.08    0.43   0.000   0.200   0.000    0.00
  13.700   19.61   -8.13    0.47   0.000   0.200   0.000    0.00
  13.750   19.63  -10.25    0.75   0.000   0.200   0.000    0.00
  13.800   19.35   -6.52   -0.57   0.000   0.200   0.000    0.00
  13.850   18.83   -6.49   -0.27   0.000   0.200   0.000    0.00
  13.900   18.51   -7.29   -0.07   0.000   0.200   0.000    0.00
  13.950   18.91   -8.51   -0.51   0.000   0.200   0.000    0.00
  14.000   19.37   -8.52   -0.21   0.000   0.200   0.000    0.00
  14.050   19.39   -8.57   -0.81   0.000   0.200   0.000    0.00
  14.100   18.76   -4.81   -0.97   0.000   0.200   0.000    0.00
  14.150   18.99   -2.64   -1.04   0.000   0.200   0.000    0.00
  14.200   19.01   -2.25    0.32   0.000   0.200   0.000    0.00
  14.250   18.75    0.15   -0.10   0.000   0.200   0.000    0.00
  14.300   19.53    1.49    0.56   0.000   0.200   0.000    0.00
  14.350   20.26    0.71    0.11   0.000   0.200   0.000    0.00
  14.400   20.43   -0.75   -0.31   0.000   0.200   0.000    0.00
  14.450   20.79    2.74    0.53   0.000   0.200   0.000    0.00
  14.500   20.33    5.37    0.77   0.000   0.200   0.000    0.00
  14.550   20.68    5.65    0.17   0.000   0.200   0.000    0.00
  14.600   20.76    3.96    0.48   0.000   0.200   0.000    0.00
  14.650   20.62    4.63    0.19   0.000   0.200   0.000    0.00
  14.700   20.84    0.97    0.62   0.000   0.200   0.000    0.00
  14.750   20.78    1.39    0.46   0.000   0.200   0.000    0.00
  14.800   20.83   -0.86    0.15   0.000   0.200   0.000    0.00
  14.850   21.48   -1.75    0.15   0.000   0.200   0.000    0.00
  14.900   21.11   -3.18    0.31   0.000   0.200   0.000    0.00
  14.950   21.20   -2.20    0.60   0.000   0.200   0.000    0.00
  15.000   20.04   -3.42    0.74   0.000   0.200   0.000    0.00
  15.050   20.30   -0.04   -0.20   0.000   0.200   0.000    0.00
  15.100   20.55   -1.90   -0.75   0.000   0.200   0.000    0.00
  15.150   20.78   -2.83   -1.64   0.000   0.200   0.000    0.00
  15.200   20.65   -1.52   -1.70   0.000   0.200   0.000    0.00
  15.250   20.29   -2.43   -1.39   0.000   0.200   0.000    0.00
  15.300   20.12   -0.36   -0.76   0.000   0.200   0.000    0.00
  15.350   19.03   -2.95   -1.03   0.000   0.200   0.000    0.00
  15.400   19.79   -4.53   -1.06   0.000   0.200   0.000    0.00
  15.450   20.33   -2.29   -0.59   0.000   0.200   0.000    0.00
  15.500   19.69   -1.10    0.35   0.000   0.200   0.000    0.00
  15.550   19.67   -4.39   -0.08   0.000   0.200   0.000    0.00
  15.600   19.71   -1.75   -0.42   0.000   0.200   0.000    0.00
  15.650   20.47   -2.99   -0.55   0.000   0.200   0.000    0.00
  15.700   20.58    0.29   -0.56   0.000   0.200   0.000    0.00
  15.750   20.82    1.89   -0.80   0.000   0.200   0.000    0.00
  15.800   20.45    2.38   -0.89   0.000   0.200   0.000    0.00
  15.850   19.75    4.45   -1.44   0.000   0.200   0.000    0.00
  15.900   19.88    4.00   -1.32   0.000   0.200   0.000    0.00
  15.950   20.62    6.65   -0.89   0.000   0.200   0.000    0.00
  16.000   20.90    7.10   -0.86   0.000   0.200   0.000    0.00
  16.050   20.61    5.31   -0.78   0.000   0.200   0.000    0.00
  16.100   20.18    6.14   -0.65   0.000   0.200   0.000    0.00
  16.150   20.68    3.82    0.52   0.000   0.200   0.000    0.00
  16.200   21.35    0.46    0.11   0.000   0.200   0.000    0.00
  16.250   21.97    1.42   -1.00   0.000   0.200   0.000    0.00
  16.300   21.64    0.15   -0.94   0.000   0.200   0.000    0.00
  16.350   22.18   -1.04   -1.44   0.000   0.200   0.000    0.00
  16.400   22.16   -3.88   -1.84   0.000   0.200   0.000    0.00
  16.450   22.71   -5.00   -1.13   0.000   0.200   0.000    0.00
  16.500   22.76   -4.40   -0.92   0.000   0.200   0.000    0.00
  16.550   23.27   -2.04   -1.07   0.000   0.200   0.000    0.00
  16.600   23.79   -3.64   -1.23   0.000   0.200   0.000    0.00
  16.650   23.32   -3.28   -1.48   0.000   0.200   0.000    0.00
  16.700   22.89   -2.43   -2.36   0.000   0.200   0.000    0.00
  16.750   22.45   -2.25   -2.52   0.000   0.200   0.000    0.00
  16.800   21.53   -2.77   -1.71   0.000   0.200   0.000    0.00
  16.850   21.61   -2.21   -2.77   0.000   0.200   0.000    0.00
  16.900   21.93   -3.74   -3.00   0.000   0.200   0.000    0.00
  16.950   22.19   -2.65   -2.14   0.000   0.200   0.000    0.00
  17.000   23.03    0.35   -2.57   0.000   0.200   0.000    0.00
  17.050   22.50    0.27   -3.22   0.000   0.200   0.000    0.00
  17.100   22.21    0.76   -2.61   0.000   0.200   0.000    0.00
  17.150   22.67    2.73   -1.60   0.000   0.200   0.000    0.00
  17.200   22.92    1.23   -1.47   0.000   0.200   0.000    0.00
  17.250   22.51   -1.49   -1.28   0.000   0.200   0.000    0.00
  17.300   21.59   -0.98   -0.49   0.000   0.200   0.000    0.00
  17.350   20.94    0.27    0.18   0.000   0.200   0.000    0.00
  17.400   20.88    1.68    1.02   0.000   0.200   0.000    0.00
  17.450   21.49    1.20    1.32   0.000   0.200   0.000    0.00
  17.500   21.35    2.91    0.53   0.000   0.200   0.000    0.00
  17.550   21.82    2.63    0.16   0.000   0.200   0.000    0.00
  17.600   22.14    5.65    0.23   0.000   0.200   0.000    0.00
  17.650   21.67    9.31   -0.02   0.000   0.200   0.000    0.00
  17.700   21.67   10.20   -0.55   0.000   0.200   0.000    0.00
  17.750   21.71   10.12   -0.66   0.000   0.200   0.000    0.00
  17.800   21.87    8.18   -0.74   0.000   0.200   0.000    0.00
  17.850   21.50    6.46    0.13   0.000   0.200   0.000    0.00
  17.900   21.78    4.87    1.15   0.000   0.200   0.000    0.00
  17.950   20.90    5.25    0.62   0.000   0.200   0.000    0.00
  18.000   21.17    8.85    0.71   0.000   0.200   0.000    0.00
  18.050   21.23    9.74    0.87   0.000   0.200   0.000    0.00
  18.100   20.55    9.77    0.88   0.000   0.200   0.000    0.00
  18.150   21.84   11.22    0.50   0.000   0.200   0.000    0.00
  18.200   21.74    9.77    0.10   0.000   0.200   0.000    0.00
  18.250   22.39    7.82   -0.71   0.000   0.200   0.000    0.00
  18.300   23.38    9.39    0.01   0.000   0.200   0.000    0.00
  18.350   22.41   10.68   -0.42   0.000   0.200   0.000    0.00
  18.400   22.30    8.06   -1.16   0.000   0.200   0.000    0.00
  18.450   21.86    4.91   -1.38   0.000   0.200   0.000    0.00
  18.500   21.73    7.81   -0.56   0.000   0.200   0.000    0.00
  18.550   22.03    6.56   -0.66   0.000   0.200   0.000    0.00
  18.600   22.28    7.22   -1.26   0.000   0.200   0.000    0.00
  18.650   22.42    7.12   -0.39   0.000   0.200   0.000    0.00
  18.700   22.00    5.09    0.66   0.000   0.200   0.000    0.00
  18.750   21.67    4.38    0.24   0.000   0.200   0.000    0.00
  18.800   21.13    5.98    0.14   0.000   0.200   0.000    0.00
  18.850   21.30    3.21    1.45   0.000   0.200   0.000    0.00
  18.900   22.22    4.68    1.35   0.000   0.200   0.000    0.00
  18.950   22.37    7.77    0.83   0.000   0.200   0.000    0.00
  19.000   22.42    6.50    0.91   0.000   0.200   0.000    0.00
  19.050   22.32    7.03    0.96   0.000   0.200   0.000    0.00
  19.100   21.98    7.89    2.02   0.000   0.200   0.000    0.00
  19.150   22.56    4.70    1.29   0.000   0.200   0.000    0.00
  19.200   22.97    5.82    0.75   0.000   0.200   0.000    0.00
  19.250   23.25    4.40    0.39   0.000   0.200   0.000    0.00
  19.300   23.06    4.59    0.33   0.000   0.200   0.000    0.00
  19.350   22.30    3.28    0.00   0.000   0.200   0.000    0.00
  19.400   22.31   -1.43   -0.49   0.000   0.200   0.000    0.00
  19.450   21.64    0.91   -0.98   0.000   0.200   0.000    0.00
  19.500   20.82    1.27   -1.56   0.000   0.200   0.000    0.00
  19.550   21.40   -0.97   -1.70   0.000   0.200   0.000    0.00
  19.600   21.48   -0.85   -1.01   0.000   0.200   0.000    0.00
  19.650   22.30   -2.04   -1.21   0.000   0.200   0.000    0.00
  19.700   21.65   -1.19   -0.92   0.000   0.200   0.000    0.00
  19.750   20.81    0.97    0.48   0.000   0.200   0.000    0.00
  19.800   20.32   -0.72    0.80   0.000   0.200   0.000    0.00
  19.850   20.44   -0.15    0.71   0.000   0.200   0.000    0.00
  19.900   20.14    0.47    0.64   0.000   0.200   0.000    0.00
  19.950   20.46    1.54    1.15   0.000   0.200   0.000    0.00
  20.000   20.16    1.49   -0.06   0.000   0.200   0.000    0.00
  20.050   20.80   -1.17    0.52   0.000   0.200   0.000    0.00
  20.100   20.62   -1.85    1.67   0.000   0.200   0.000    0.00
  20.150   20.43   -0.52    1.69   0.000   0.200   0.000    0.00
  20.200   20.05    3.33    3.23   0.000   0.200   0.000    0.00
  20.250   20.17    2.32    3.63   0.000   0.200   0.000    0.00
  20.300   20.23   -0.41    2.38   0.000   0.200   0.000    0.00
  20.350   20.34    2.98    1.80   0.000   0.200   0.000    0.00
  20.400   20.10    2.75    1.44   0.000   0.200   0.000    0.00
  20.450   18.93    4.08    2.23   0.000   0.200   0.000    0.00
  20.500   18.55    3.84    2.11   0.000   0.200   0.000    0.00
  20.550   18.37    0.24    2.26   0.000   0.200   0.000    0.00
  20.600   17.54   -2.21    1.65   0.000   0.200   0.000    0.00
  20.650   17.38   -1.77    1.95   0.000   0.200   0.000    0.00
  20.700   18.13   -2.51    1.95   0.000   0.200   0.000    0.00
  20.750   18.18   -4.08    2.08   0.000   0.200   0.000    0.00
  20.800   18.74   -3.82    1.76   0.000   0.200   0.000    0.00
  20.850   19.18   -4.23    0.91   0.000   0.200   0.000    0.00
  20.900   18.99   -7.43    0.60   0.000   0.200   0.000    0.00
  20.950   19.63   -6.71    0.78   0.000   0.200   0.000    0.00
  21.000   20.25   -3.95    1.75   0.000   0.200   0.000    0.00
  21.050   21.58   -3.68    1.58   0.000   0.200   0.000    0.00
  21.100   20.52   -3.35    0.40   0.000   0.200   0.000    0.00
  21.150   20.04   -0.78    0.31   0.000   0.200   0.000    0.00
  21.200   20.08   -0.01    0.68   0.000   0.200   0.000    0.00
  21.250   20.40   -0.82    0.55   0.000   0.200   0.000    0.00
  21.300   21.12   -2.48    0.35   0.000   0.200   0.000    0.00
  21.350   21.18   -2.90   -0.30   0.000   0.200   0.000    0.00
  21.400   21.02    0.99   -0.73   0.000   0.200   0.000    0.00
  21.450   21.34   -2.26   -2.03   0.000   0.200   0.000    0.00
  21.500   21.21   -2.79   -0.75   0.000   0.200   0.000    0.00
  21.550   21.16   -0.89   -1.24   0.000   0.200   0.000    0.00
  21.600   21.15    0.31   -0.83   0.000   0.200   0.000    0.00
  21.650   20.80   -0.81   -1.19   0.000   0.200   0.000    0.00
  21.700   20.09   -2.86   -0.74   0.000   0.200   0.000    0.00
  21.750   19.66   -4.94    0.02   0.000   0.200   0.000    0.00
  21.800   19.52   -6.39    0.46   0.000   0.200   0.000    0.00
  21.850   19.17   -4.79    0.30   0.000   0.200   0.000    0.00
  21.900   18.64   -3.84    0.31   0.000   0.200   0.000    0.00
  21.950   19.54   -2.71   -0.47   0.000   0.200   0.000    0.00
  22.000   19.48   -0.44    0.94   0.000   0.200   0.000    0.00
  22.050   19.80    1.75    0.40   0.000   0.200   0.000    0.00
  22.100   20.55    1.65    0.88   0.000   0.200   0.000    0.00
  22.150   20.84    1.45    0.22   0.000   0.200   0.000    0.00
  22.200   21.27   -0.26    0.16   0.000   0.200   0.000    0.00
  22.250   20.79    0.58    0.29   0.000   0.200   0.000    0.00
  22.300   20.38    1.28   -0.42   0.000   0.200   0.000    0.00
  22.350   20.22    0.92   -0.38   0.000   0.200   0.000    0.00