! This hub-height wind-speed file was generated by TurbSim (v1.06.00, 21-Sep-2012) on 03-Feb-2018 at 23:32:00.
!
! The requested statistics for this data were:
!    Mean Total Wind Speed =   21.000 m/s
!    Turbulence Intensity  =   14.233%
!
!   Time  HorSpd  WndDir  VerSpd  HorShr  VerShr  LnVShr  GstSpd
!  (sec)   (m/s)   (deg)   (m/s)     (-)     (-)     (-)   (m/s)
   0.000   23.69   17.17   -0.46   0.000   0.200   0.000    0.00
   0.050   24.54   17.80   -0.73   0.000   0.200   0.000    0.00
   0.100   23.83   13.22   -0.75   0.000   0.200   0.000    0.00
   0.150   24.14   13.77   -0.37   0.000   0.200   0.000    0.00
   0.200   25.22   15.13    0.18   0.000   0.200   0.000    0.00
   0.250   25.51   11.85   -0.16   0.000   0.200   0.000    0.00
   0.300   25.32   11.26   -0.22   0.000   0.200   0.000    0.00
   0.350   25.86    8.93    0.23   0.000   0.200   0.000    0.00
   0.400   27.27   10.06    0.47   0.000   0.200   0.000    0.00
   0.450   27.08    8.55    0.73   0.000   0.200   0.000    0.00
   0.500   26.72    6.51    1.53   0.000   0.200   0.000    0.00
   0.550   26.01    9.61    1.85   0.000   0.200   0.000    0.00
   0.600   25.93    9.59    1.64   0.000   0.200   0.000    0.00
   0.650   25.70    9.43    0.34   0.000   0.200   0.000    0.00
   0.700   26.37   11.59   -0.72   0.000   0.200   0.000    0.00
   0.750   27.30   13.47   -0.43   0.000   0.200   0.000    0.00
   0.800   27.64   12.48   -1.85   0.000   0.200   0.000    0.00
   0.850   26.76   13.37   -2.38   0.000   0.200   0.000    0.00
   0.900   25.20   10.56   -3.12   0.000   0.200   0.000    0.00
   0.950   24.09   11.02   -2.12   0.000   0.200   0.000    0.00
   1.000   25.14   10.14   -1.10   0.000   0.200   0.000    0.00
   1.050   24.82    9.80   -1.91   0.000   0.200   0.000    0.00
   1.100   24.34   10.93   -1.98   0.000   0.200   0.000    0.00
   1.150   24.57    9.21   -2.47   0.000   0.200   0.000    0.00
   1.200   24.75    9.28   -2.16   0.000   0.200   0.000    0.00
   1.250   24.70    8.35   -3.11   0.000   0.200   0.000    0.00
   1.300   24.90    9.14   -2.54   0.000   0.200   0.000    0.00
   1.350   24.20    9.22   -1.89   0.000   0.200   0.000    0.00
   1.400   24.16    9.14   -1.16   0.000   0.200   0.000    0.00
   1.450   24.96    9.09   -1.65   0.000   0.200   0.000    0.00
   1.500   24.82    8.12   -1.72   0.000   0.200   0.000    0.00
   1.550   25.37   10.54   -1.60   0.000   0.200   0.000    0.00
   1.600   25.14    9.55   -1.53   0.000   0.200   0.000    0.00
   1.650   24.51   11.31   -2.88   0.000   0.200   0.000    0.00
   1.700   24.36   12.82   -2.17   0.000   0.200   0.000    0.00
   1.750   24.02   12.72   -2.12   0.000   0.200   0.000    0.00
   1.800   24.23   12.23   -1.68   0.000   0.200   0.000    0.00
   1.850   24.27    9.32   -2.01   0.000   0.200   0.000    0.00
   1.900   23.59    7.42   -2.84   0.000   0.200   0.000    0.00
   1.950   23.95    8.32   -2.00   0.000   0.200   0.000    0.00
   2.000   23.73    8.37   -1.53   0.000   0.200   0.000    0.00
   2.050   23.30    9.04   -0.59   0.000   0.200   0.000    0.00
   2.100   22.56    8.11    0.16   0.000   0.200   0.000    0.00
   2.150   22.88    9.58    0.93   0.000   0.200   0.000    0.00
   2.200   21.82    7.69    1.52   0.000   0.200   0.000    0.00
   2.250   22.15    8.01    2.51   0.000   0.200   0.000    0.00
   2.300   22.35    7.75    1.27   0.000   0.200   0.000    0.00
   2.350   22.10    8.37    1.63   0.000   0.200   0.000    0.00
   2.400   23.38    7.30    1.97   0.000   0.200   0.000    0.00
   2.450   23.21    8.87    2.25   0.000   0.200   0.000    0.00
   2.500   22.76    7.59    1.82   0.000   0.200   0.000    0.00
   2.550   22.69    7.53    0.88   0.000   0.200   0.000    0.00
   2.600   22.43    5.73    1.42   0.000   0.200   0.000    0.00
   2.650   22.42    5.12    0.51   0.000   0.200   0.000    0.00
   2.700   23.26    5.49    0.00   0.000   0.200   0.000    0.00
   2.750   22.75    5.69    1.15   0.000   0.200   0.000    0.00
   2.800   21.02    3.63    0.15   0.000   0.200   0.000    0.00
   2.850   21.31    0.55   -0.38   0.000   0.200   0.000    0.00
   2.900   21.30    0.30   -0.54   0.000   0.200   0.000    0.00
   2.950   22.52   -0.78   -0.03   0.000   0.200   0.000    0.00
   3.000   23.25   -1.97    0.66   0.000   0.200   0.000    0.00
   3.050   23.09   -2.71    0.91   0.000   0.200   0.000    0.00
   3.100   23.24   -2.94    2.20   0.000   0.200   0.000    0.00
   3.150   23.63   -2.28    1.46   0.000   0.200   0.000    0.00
   3.200   23.43   -1.83    1.13   0.000   0.200   0.000    0.00
   3.250   22.25   -4.73    2.23   0.000   0.200   0.000    0.00
   3.300   21.77   -4.58    3.33   0.000   0.200   0.000    0.00
   3.350   21.47   -3.82    2.63   0.000   0.200   0.000    0.00
   3.400   21.32   -2.76    1.93   0.000   0.200   0.000    0.00
   3.450   21.59   -3.42    1.64   0.000   0.200   0.000    0.00
   3.500   20.88   -1.48    0.75   0.000   0.200   0.000    0.00
   3.550   20.77   -3.79    1.50   0.000   0.200   0.000    0.00
   3.600   20.45   -2.61    0.51   0.000   0.200   0.000    0.00
   3.650   21.50   -1.98    0.96   0.000   0.200   0.000    0.00
   3.700   21.25   -2.73    1.47   0.000   0.200   0.000    0.00
   3.750   21.29   -3.64    1.82   0.000   0.200   0.000    0.00
   3.800   22.83   -3.64    1.32   0.000   0.200   0.000    0.00
   3.850   23.30   -1.63    0.56   0.000   0.200   0.000    0.00
   3.900   23.27   -1.11   -0.70   0.000   0.200   0.000    0.00
   3.950   22.97   -2.74   -1.27   0.000   0.200   0.000    0.00
   4.000   22.67   -2.20   -0.47   0.000   0.200   0.000    0.00
   4.050   22.35   -0.36   -0.75   0.000   0.200   0.000    0.00
   4.100   21.82   -3.23   -2.13   0.000   0.200   0.000    0.00
   4.150   21.66   -2.69   -1.77   0.000   0.200   0.000    0.00
   4.200   21.24   -0.61   -2.06   0.000   0.200   0.000    0.00
   4.250   20.68   -0.21   -2.71   0.000   0.200   0.000    0.00
   4.300   20.90   -1.55   -1.44   0.000   0.200   0.000    0.00
   4.350   20.43   -4.15   -0.34   0.000   0.200   0.000    0.00
   4.400   21.43   -6.60   -0.30   0.000   0.200   0.000    0.00
   4.450   21.56   -6.66   -0.05   0.000   0.200   0.000    0.00
   4.500   20.36   -5.27   -0.30   0.000   0.200   0.000    0.00
   4.550   20.37   -2.40    0.92   0.000   0.200   0.000    0.00
   4.600   20.35   -1.95    0.38   0.000   0.200   0.000    0.00
   4.650   20.39   -1.87    0.37   0.000   0.200   0.000    0.00
   4.700   21.04   -2.70    0.09   0.000   0.200   0.000    0.00
   4.750   20.68   -2.02   -0.50   0.000   0.200   0.000    0.00
   4.800   20.33   -1.41    0.17   0.000   0.200   0.000    0.00
   4.850   20.69   -0.41   -0.42   0.000   0.200   0.000    0.00
   4.900   21.20   -0.49   -0.72   0.000   0.200   0.000    0.00
   4.950   21.93    2.41   -0.35   0.000   0.200   0.000    0.00
   5.000   21.26    1.95   -1.07   0.000   0.200   0.000    0.00
   5.050   21.42    5.39   -1.09   0.000   0.200   0.000    0.00
   5.100   21.45    4.87   -2.57   0.000   0.200   0.000    0.00
   5.150   22.09    1.40   -2.56   0.000   0.200   0.000    0.00
   5.200   21.82    1.15   -2.79   0.000   0.200   0.000    0.00
   5.250   22.02    3.82   -2.49   0.000   0.200   0.000    0.00
   5.300   22.24    3.51   -1.75   0.000   0.200   0.000    0.00
   5.350   22.82    2.19   -1.35   0.000   0.200   0.000    0.00
   5.400   22.17    2.54   -0.95   0.000   0.200   0.000    0.00
   5.450   22.20    2.51   -1.43   0.000   0.200   0.000    0.00
   5.500   22.25    1.45   -1.47   0.000   0.200   0.000    0.00
   5.550   21.12    5.36   -2.55   0.000   0.200   0.000    0.00
   5.600   20.42    6.95   -2.65   0.000   0.200   0.000    0.00
   5.650   20.46    7.15   -2.63   0.000   0.200   0.000    0.00
   5.700   20.61    7.33   -0.96   0.000   0.200   0.000    0.00
   5.750   20.28    8.93   -0.03   0.000   0.200   0.000    0.00
   5.800   20.42    9.05   -0.74   0.000   0.200   0.000    0.00
   5.850   20.67   11.30   -0.41   0.000   0.200   0.000    0.00
   5.900   21.09   13.79   -0.36   0.000   0.200   0.000    0.00
   5.950   21.20   13.93   -0.29   0.000   0.200   0.000    0.00
   6.000   20.98   15.67    0.37   0.000   0.200   0.000    0.00
   6.050   21.61   17.87   -0.23   0.000   0.200   0.000    0.00
   6.100   21.16   16.01   -0.49   0.000   0.200   0.000    0.00
   6.150   21.26   12.46   -0.19   0.000   0.200   0.000    0.00
   6.200   20.95   10.41   -0.56   0.000   0.200   0.000    0.00
   6.250   20.81    9.06   -0.57   0.000   0.200   0.000    0.00
   6.300   20.36   10.66   -0.03   0.000   0.200   0.000    0.00
   6.350   20.07   12.32   -0.42   0.000   0.200   0.000    0.00
   6.400   20.55   12.84   -0.21   0.000   0.200   0.000    0.00
   6.450   20.55   10.55   -0.43   0.000   0.200   0.000    0.00
   6.500   21.45   10.79   -0.71   0.000   0.200   0.000    0.00
   6.550   20.39    8.98   -1.39   0.000   0.200   0.000    0.00
   6.600   21.37    9.13   -0.87   0.000   0.200   0.000    0.00
   6.650   21.46    7.99   -0.92   0.000   0.200   0.000    0.00
   6.700   20.73    7.14   -1.82   0.000   0.200   0.000    0.00
   6.750   20.36    9.88   -0.41   0.000   0.200   0.000    0.00
   6.800   20.21    6.63   -0.45   0.000   0.200   0.000    0.00
   6.850   20.65    7.44   -0.34   0.000   0.200   0.000    0.00
   6.900   21.16    8.67   -0.13   0.000   0.200   0.000    0.00
   6.950   21.10   11.01   -0.29   0.000   0.200   0.000    0.00
   7.000   21.47   12.62   -1.03   0.000   0.200   0.000    0.00
   7.050   21.53   13.64   -0.27   0.000   0.200   0.000    0.00
   7.100   22.00   13.55   -0.13   0.000   0.200   0.000    0.00
   7.150   22.09   13.18    0.58   0.000   0.200   0.000    0.00
   7.200   22.39   12.69    0.81   0.000   0.200   0.000    0.00
   7.250   22.18   12.21    0.43   0.000   0.200   0.000    0.00
   7.300   22.30   13.06   -0.13   0.000   0.200   0.000    0.00
   7.350   22.30   10.53    0.16   0.000   0.200   0.000    0.00
   7.400   20.99   12.63    0.08   0.000   0.200   0.000    0.00
   7.450   21.31   13.00   -1.11   0.000   0.200   0.000    0.00
   7.500   21.88   13.34   -0.44   0.000   0.200   0.000    0.00
   7.550   21.85   17.05   -0.31   0.000   0.200   0.000    0.00
   7.600   21.89   17.58   -1.31   0.000   0.200   0.000    0.00
   7.650   22.23   16.82   -0.70   0.000   0.200   0.000    0.00
   7.700   22.64   16.66   -0.52   0.000   0.200   0.000    0.00
   7.750   21.72   17.31   -0.38   0.000   0.200   0.000    0.00
   7.800   22.13   18.11   -0.38   0.000   0.200   0.000    0.00
   7.850   21.65   16.80   -1.92   0.000   0.200   0.000    0.00
   7.900   21.65   16.40   -2.03   0.000   0.200   0.000    0.00
   7.950   21.36   16.30   -1.41   0.000   0.200   0.000    0.00
   8.000   20.84   14.30   -1.52   0.000   0.200   0.000    0.00
   8.050   20.38   12.77   -1.64   0.000   0.200   0.000    0.00
   8.100   21.03   12.94   -1.86   0.000   0.200   0.000    0.00
   8.150   21.19   12.61   -1.38   0.000   0.200   0.000    0.00
   8.200   20.90   11.10   -1.18   0.000   0.200   0.000    0.00
   8.250   20.94    9.13   -1.09   0.000   0.200   0.000    0.00
   8.300   21.20   10.09   -1.17   0.000   0.200   0.000    0.00
   8.350   21.14   10.32   -1.45   0.000   0.200   0.000    0.00
   8.400   21.41   11.18   -1.76   0.000   0.200   0.000    0.00
   8.450   21.20    8.09   -2.67   0.000   0.200   0.000    0.00
   8.500   21.97    9.08   -2.15   0.000   0.200   0.000    0.00
   8.550   22.04    7.74   -1.71   0.000   0.200   0.000    0.00
   8.600   22.24    7.07    0.32   0.000   0.200   0.000    0.00
   8.650   23.46    6.58    0.80   0.000   0.200   0.000    0.00
   8.700   23.84    4.28    1.51   0.000   0.200   0.000    0.00
   8.750   24.01    4.76    1.67   0.000   0.200   0.000    0.00
   8.800   23.73    8.14    0.88   0.000   0.200   0.000    0.00
   8.850   23.73    8.24    0.02   0.000   0.200   0.000    0.00
   8.900   24.27   10.91   -0.41   0.000   0.200   0.000    0.00
   8.950   24.21   10.45   -0.48   0.000   0.200   0.000    0.00
   9.000   24.20    9.20    0.48   0.000   0.200   0.000    0.00
   9.050   24.24    8.25   -0.16   0.000   0.200   0.000    0.00
   9.100   24.61    6.64   -0.39   0.000   0.200   0.000    0.00
   9.150   24.50    6.29    0.11   0.000   0.200   0.000    0.00
   9.200   24.03    5.60    0.00   0.000   0.200   0.000    0.00
   9.250   23.60    7.73   -0.51   0.000   0.200   0.000    0.00
   9.300   23.25    5.40   -0.89   0.000   0.200   0.000    0.00
   9.350   23.13    3.14   -0.09   0.000   0.200   0.000    0.00
   9.400   23.12    1.13    0.53   0.000   0.200   0.000    0.00
   9.450   22.78    0.01   -0.11   0.000   0.200   0.000    0.00
   9.500   23.43    2.52   -0.27   0.000   0.200   0.000    0.00
   9.550   23.56    5.36   -0.47   0.000   0.200   0.000    0.00
   9.600   23.67    5.40   -1.35   0.000   0.200   0.000    0.00
   9.650   23.82    4.37   -0.74   0.000   0.200   0.000    0.00
   9.700   24.19    1.98   -0.70   0.000   0.200   0.000    0.00
   9.750   22.79    2.81   -1.58   0.000   0.200   0.000    0.00
   9.800   23.14    4.77   -1.21   0.000   0.200   0.000    0.00
   9.850   22.20    5.19   -1.10   0.000   0.200   0.000    0.00
   9.900   21.66    1.34   -1.57   0.000   0.200   0.000    0.00
   9.950   22.05    2.16   -1.99   0.000   0.200   0.000    0.00
  10.000   22.02    3.20   -1.08   0.000   0.200   0.000    0.00
  10.050   21.69    2.16   -0.14   0.000   0.200   0.000    0.00
  10.100   21.65    1.44   -1.05   0.000   0.200   0.000    0.00
  10.150   21.01    2.89   -1.46   0.000   0.200   0.000    0.00
  10.200   21.39    3.36   -2.35   0.000   0.200   0.000    0.00
  10.250   21.29    2.30   -1.76   0.000   0.200   0.000    0.00
  10.300   20.93    3.29   -0.81   0.000   0.200   0.000    0.00
  10.350   19.93    4.88   -0.76   0.000   0.200   0.000    0.00
  10.400   20.14    6.91   -0.32   0.000   0.200   0.000    0.00
  10.450   20.92    5.51   -1.07   0.000   0.200   0.000    0.00
  10.500   22.04    7.77   -1.29   0.000   0.200   0.000    0.00
  10.550   22.03    6.82   -2.64   0.000   0.200   0.000    0.00
  10.600   21.17    5.43   -1.12   0.000   0.200   0.000    0.00
  10.650   20.74    3.01    0.79   0.000   0.200   0.000    0.00
  10.700   20.97    2.55    0.81   0.000   0.200   0.000    0.00
  10.750   21.02    4.96    1.36   0.000   0.200   0.000    0.00
  10.800   20.68    3.93    0.77   0.000   0.200   0.000    0.00
  10.850   21.81    2.24    0.22   0.000   0.200   0.000    0.00
  10.900   22.27    3.69    0.41   0.000   0.200   0.000    0.00
  10.950   21.75    4.92    0.37   0.000   0.200   0.000    0.00
  11.000   20.86    3.91   -0.17   0.000   0.200   0.000    0.00
  11.050   20.51    4.58    0.19   0.000   0.200   0.000    0.00
  11.100   19.73    4.68    0.48   0.000   0.200   0.000    0.00
  11.150   20.04    4.81   -0.39   0.000   0.200   0.000    0.00
  11.200   20.14    4.49    0.19   0.000   0.200   0.000    0.00
  11.250   20.18    2.49    1.17   0.000   0.200   0.000    0.00
  11.300   20.46    1.09    1.67   0.000   0.200   0.000    0.00
  11.350   20.00    3.11    1.76   0.000   0.200   0.000    0.00
  11.400   19.13    3.23    2.53   0.000   0.200   0.000    0.00
  11.450   19.20    3.36    1.84   0.000   0.200   0.000    0.00
  11.500   19.83    3.19    1.67   0.000   0.200   0.000    0.00
  11.550   20.02    1.52    1.17   0.000   0.200   0.000    0.00
  11.600   20.30    2.36    1.36   0.000   0.200   0.000    0.00
  11.650   20.68    3.72    2.18   0.000   0.200   0.000    0.00
  11.700   20.61    4.78    1.00   0.000   0.200   0.000    0.00
  11.750   19.92    3.80    0.77   0.000   0.200   0.000    0.00
  11.800   19.70    4.28    0.27   0.000   0.200   0.000    0.00
  11.850   18.81    6.07   -0.24   0.000   0.200   0.000    0.00
  11.900   18.28    3.91    0.16   0.000   0.200   0.000    0.00
  11.950   18.35    4.83   -0.96   0.000   0.200   0.000    0.00
  12.000   18.73    4.54   -0.68   0.000   0.200   0.000    0.00
  12.050   18.65    3.20   -1.39   0.000   0.200   0.000    0.00
  12.100   17.23    1.93   -0.95   0.000   0.200   0.000    0.00
  12.150   17.85    0.76   -1.34   0.000   0.200   0.000    0.00
  12.200   17.96    0.85   -0.41   0.000   0.200   0.000    0.00
  12.250   17.94   -1.22   -0.88   0.000   0.200   0.000    0.00
  12.300   17.57    1.58   -0.98   0.000   0.200   0.000    0.00
  12.350   16.74    2.47   -0.67   0.000   0.200   0.000    0.00
  12.400   17.63    5.34    0.36   0.000   0.200   0.000    0.00
  12.450   17.64    2.73   -1.26   0.000   0.200   0.000    0.00
  12.500   16.99    2.89   -2.18   0.000   0.200   0.000    0.00
  12.550   16.29    4.25   -1.24   0.000   0.200   0.000    0.00
  12.600   17.03    3.08   -1.45   0.000   0.200   0.000    0.00
  12.650   17.41    1.93   -1.17   0.000   0.200   0.000    0.00
  12.700   18.66    1.42   -0.41   0.000   0.200   0.000    0.00
  12.750   18.89    3.25   -0.64   0.000   0.200   0.000    0.00
  12.800   18.30    7.06   -0.37   0.000   0.200   0.000    0.00
  12.850   18.61    6.17   -0.87   0.000   0.200   0.000    0.00
  12.900   17.79    7.43   -0.72   0.000   0.200   0.000    0.00
  12.950   17.10   10.72   -0.82   0.000   0.200   0.000    0.00
  13.000   17.62   10.04   -0.25   0.000   0.200   0.000    0.00
  13.050   16.97    8.18   -0.60   0.000   0.200   0.000    0.00
  13.100   18.11    8.23    0.05   0.000   0.200   0.000    0.00
  13.150   18.28    5.56    0.67   0.000   0.200   0.000    0.00
  13.200   19.10    4.78    0.45   0.000   0.200   0.000    0.00
  13.250   19.21    2.25    0.67   0.000   0.200   0.000    0.00
  13.300   19.36    0.65    0.82   0.000   0.200   0.000    0.00
  13.350   19.47    0.73    1.39   0.000   0.200   0.000    0.00
  13.400   18.71   -0.39    0.53   0.000   0.200   0.000    0.00
  13.450   18.63    1.92    0.60   0.000   0.200   0.000    0.00
  13.500   19.00    6.36   -0.46   0.000   0.200   0.000    0.00
  13.550   19.46    5.89   -0.18   0.000   0.200   0.000    0.00
  13.600   19.24    7.43    0.20   0.000   0.200   0.000    0.00
  13.650   20.13    6.21    0.22   0.000   0.200   0.000    0.00
  13.700   20.72    8.84   -0.26   0.000   0.200   0.000    0.00
  13.750   20.13    5.49   -0.51   0.000   0.200   0.000    0.00
  13.800   20.05    6.46   -0.09   0.000   0.200   0.000    0.00
  13.850   19.37    6.78   -0.13   0.000   0.200   0.000    0.00
  13.900   19.55    0.99   -0.02   0.000   0.200   0.000    0.00
  13.950   19.49    0.61    0.56   0.000   0.200   0.000    0.00
  14.000   18.54   -0.35    0.55   0.000   0.200   0.000    0.00
  14.050   19.00   -0.99    0.59   0.000   0.200   0.000    0.00
  14.100   18.86   -2.79    1.08   0.000   0.200   0.000    0.00
  14.150   18.91   -2.85   -0.13   0.000   0.200   0.000    0.00
  14.200   18.83   -2.22    0.59   0.000   0.200   0.000    0.00
  14.250   18.71   -3.91    1.15   0.000   0.200   0.000    0.00
  14.300   19.19    0.40    1.42   0.000   0.200   0.000    0.00
  14.350   18.80    2.27    1.50   0.000   0.200   0.000    0.00
  14.400   18.93    1.06    1.94   0.000   0.200   0.000    0.00
  14.450   18.20    1.67    1.12   0.000   0.200   0.000    0.00
  14.500   18.23    4.98    0.32   0.000   0.200   0.000    0.00
  14.550   17.34    7.28    0.47   0.000   0.200   0.000    0.00
  14.600   17.14    5.05    0.87   0.000   0.200   0.000    0.00
  14.650   17.21    4.76    0.35   0.000   0.200   0.000    0.00
  14.700   17.90    5.89   -0.26   0.000   0.200   0.000    0.00
  14.750   18.67    2.69    0.76   0.000   0.200   0.000    0.00
  14.800   18.90    3.04    1.20   0.000   0.200   0.000    0.00
  14.850   18.95    6.77    1.31   0.000   0.200   0.000    0.00
  14.900   19.01    4.55    0.41   0.000   0.200   0.000    0.00
  14.950   19.43    4.92    0.44   0.000   0.200   0.000    0.00
  15.000   20.08    7.62    0.10   0.000   0.200   0.000    0.00
  15.050   19.20    8.58    0.13   0.000   0.200   0.000    0.00
  15.100   18.56   14.79    1.02   0.000   0.200   0.000    0.00
  15.150   18.21   12.41    0.40   0.000   0.200   0.000    0.00
  15.200   17.74   11.80    0.32   0.000   0.200   0.000    0.00
  15.250   18.04    6.25   -0.38   0.000   0.200   0.000    0.00
  15.300   18.45    4.54   -0.53   0.000   0.200   0.000    0.00
  15.350   17.76    5.78    0.12   0.000   0.200   0.000    0.00
  15.400   18.44    8.70    0.17   0.000   0.200   0.000    0.00
  15.450   18.70   12.73   -0.10   0.000   0.200   0.000    0.00
  15.500   19.09   14.67   -1.13   0.000   0.200   0.000    0.00
  15.550   19.03   13.65    0.07   0.000   0.200   0.000    0.00
  15.600   19.18   12.07    0.11   0.000   0.200   0.000    0.00
  15.650   18.27    8.05   -0.21   0.000   0.200   0.000    0.00
  15.700   17.86    7.92   -0.99   0.000   0.200   0.000    0.00
  15.750   18.23    5.32   -1.92   0.000   0.200   0.000    0.00
  15.800   18.03    5.53   -0.87   0.000   0.200   0.000    0.00
  15.850   18.39    7.14    0.30   0.000   0.200   0.000    0.00
  15.900   18.25    9.92    0.18   0.000   0.200   0.000    0.00
  15.950   19.06   11.60    0.51   0.000   0.200   0.000    0.00
  16.000   19.86    9.69    1.23   0.000   0.200   0.000    0.00
  16.050   19.26    8.74    1.22   0.000   0.200   0.000    0.00
  16.100   19.06    7.93    1.23   0.000   0.200   0.000    0.00
  16.150   18.77    7.11    0.96   0.000   0.200   0.000    0.00
  16.200   17.88    5.20    1.37   0.000   0.200   0.000    0.00
  16.250   17.33    4.27    1.41   0.000   0.200   0.000    0.00
  16.300   16.29    6.56    2.16   0.000   0.200   0.000    0.00
  16.350   16.47   11.29    1.11   0.000   0.200   0.000    0.00
  16.400   16.38   16.16    1.24   0.000   0.200   0.000    0.00
  16.450   17.06   12.96    0.83   0.000   0.200   0.000    0.00
  16.500   16.77   11.43    0.13   0.000   0.200   0.000    0.00
  16.550   16.66   13.65    1.38   0.000   0.200   0.000    0.00
  16.600   16.67   12.11    0.70   0.000   0.200   0.000    0.00
  16.650   17.15   13.13    0.57   0.000   0.200   0.000    0.00
  16.700   16.33   15.30    1.00   0.000   0.200   0.000    0.00
  16.750   16.84   13.00    1.18   0.000   0.200   0.000    0.00
  16.800   16.71   15.36    1.16   0.000   0.200   0.000    0.00
  16.850   17.14   14.89    0.96   0.000   0.200   0.000    0.00
  16.900   17.05   10.63    1.71   0.000   0.200   0.000    0.00
  16.950   17.18    4.50    2.32   0.000   0.200   0.000    0.00
  17.000   17.94    6.33    2.47   0.000   0.200   0.000    0.00
  17.050   17.74    4.57    1.80   0.000   0.200   0.000    0.00
  17.100   17.69    2.29    1.32   0.000   0.200   0.000    0.00
  17.150   18.24    2.89    1.34   0.000   0.200   0.000    0.00
  17.200   17.65    7.69    1.63   0.000   0.200   0.000    0.00
  17.250   17.52    9.18    2.61   0.000   0.200   0.000    0.00
  17.300   18.55    8.00    3.19   0.000   0.200   0.000    0.00
  17.350   19.37    7.97    3.34   0.000   0.200   0.000    0.00
  17.400   19.85    6.90    3.75   0.000   0.200   0.000    0.00
  17.450   20.51    4.41    2.81   0.000   0.200   0.000    0.00
  17.500   21.16    4.91    2.45   0.000   0.200   0.000    0.00
  17.550   19.88    5.48    1.91   0.000   0.200   0.000    0.00
  17.600   19.84    5.73    1.21   0.000   0.200   0.000    0.00
  17.650   20.83    8.12    1.28   0.000   0.200   0.000    0.00
  17.700   20.89   10.09    1.90   0.000   0.200   0.000    0.00
  17.750   20.21   10.41    2.38   0.000   0.200   0.000    0.00
  17.800   19.42   10.54    2.05   0.000   0.200   0.000    0.00
  17.850   19.52   11.43    1.07   0.000   0.200   0.000    0.00
  17.900   19.79    9.45    0.96   0.000   0.200   0.000    0.00
  17.950   20.59    5.99    1.08   0.000   0.200   0.000    0.00
  18.000   19.99    6.92    0.98   0.000   0.200   0.000    0.00
  18.050   19.32    5.55    1.29   0.000   0.200   0.000    0.00
  18.100   19.36    9.01    1.56   0.000   0.200   0.000    0.00
  18.150   19.59    8.55    2.05   0.000   0.200   0.000    0.00
  18.200   19.38   10.52    1.46   0.000   0.200   0.000    0.00
  18.250   18.79   10.60    1.91   0.000   0.200   0.000    0.00
  18.300   18.90    9.06    1.93   0.000   0.200   0.000    0.00
  18.350   19.54   10.73    2.28   0.000   0.200   0.000    0.00
  18.400   20.09   10.76    2.45   0.000   0.200   0.000    0.00
  18.450   20.38   12.49    2.71   0.000   0.200   0.000    0.00
  18.500   20.73   12.62    2.10   0.000   0.200   0.000    0.00
  18.550   20.96   13.14    1.88   0.000   0.200   0.000    0.00
  18.600   21.12   11.70    2.45   0.000   0.200   0.000    0.00
  18.650   20.50    9.30    1.75   0.000   0.200   0.000    0.00
  18.700   20.92   10.28    1.86   0.000   0.200   0.000    0.00
  18.750   20.98    9.83    2.68   0.000   0.200   0.000    0.00
  18.800   20.16   11.17    1.62   0.000   0.200   0.000    0.00
  18.850   20.31   12.03    1.16   0.000   0.200   0.000    0.00
  18.900   19.71   13.79    0.44   0.000   0.200   0.000    0.00
  18.950   20.02   15.58    0.55   0.000   0.200   0.000    0.00
  19.000   21.21   13.20    0.23   0.000   0.200   0.000    0.00
  19.050   21.01   11.84    2.08   0.000   0.200   0.000    0.00
  19.100   21.47   11.14    3.15   0.000   0.200   0.000    0.00
  19.150   21.07    8.38    2.86   0.000   0.200   0.000    0.00
  19.200   20.56    8.35    3.52   0.000   0.200   0.000    0.00
  19.250   20.39    8.94    3.89   0.000   0.200   0.000    0.00
  19.300   20.55   11.40    3.88   0.000   0.200   0.000    0.00
  19.350   21.39   14.09    4.04   0.000   0.200   0.000    0.00
  19.400   21.13   13.81    3.86   0.000   0.200   0.000    0.00
  19.450   19.59   16.54    3.24   0.000   0.200   0.000    0.00
  19.500   19.21   17.84    2.80   0.000   0.200   0.000    0.00
  19.550   20.38   18.03    2.44   0.000   0.200   0.000    0.00
  19.600   20.43   18.50    1.90   0.000   0.200   0.000    0.00
  19.650   20.36   20.13    2.31   0.000   0.200   0.000    0.00
  19.700   19.09   17.90    2.16   0.000   0.200   0.000    0.00
  19.750   19.16   17.51    2.75   0.000   0.200   0.000    0.00
  19.800   18.59   15.45    2.55   0.000   0.200   0.000    0.00
  19.850   18.95   11.48    3.05   0.000   0.200   0.000    0.00
  19.900   18.71   11.26    3.45   0.000   0.200   0.000    0.00
  19.950   19.06    8.77    2.58   0.000   0.200   0.000    0.00
  20.000   18.96    8.08    2.41   0.000   0.200   0.000    0.00
  20.050   18.57    8.90    1.40   0.000   0.200   0.000    0.00
  20.100   18.82    9.62    1.38   0.000   0.200   0.000    0.00
  20.150   18.99   11.20    1.97   0.000   0.200   0.000    0.00
  20.200   18.79   15.29    0.83   0.000   0.200   0.000    0.00
  20.250   18.86   15.12    0.91   0.000   0.200   0.000    0.00
  20.300   18.77   16.58    0.72   0.000   0.200   0.000    0.00
  20.350   19.47   18.33    0.03   0.000   0.200   0.000    0.00
  20.400   19.25   15.63   -0.40   0.000   0.200   0.000    0.00
  20.450   19.66   17.63    0.28   0.000   0.200   0.000    0.00
  20.500   20.66   15.23    0.15   0.000   0.200   0.000    0.00
  20.550   20.44   10.10   -0.15   0.000   0.200   0.000    0.00
  20.600   19.75    8.86   -0.36   0.000   0.200   0.000    0.00
  20.650   19.62    7.05    0.17   0.000   0.200   0.000    0.00
  20.700   18.95    6.70   -0.06   0.000   0.200   0.000    0.00
  20.750   17.80    6.90   -0.10   0.000   0.200   0.000    0.00
  20.800   18.55    6.31   -0.92   0.000   0.200   0.000    0.00
  20.850   18.95    6.48    0.21   0.000   0.200   0.000    0.00
  20.900   19.00    7.77    0.61   0.000   0.200   0.000    0.00
  20.950   19.35    7.38    0.30   0.000   0.200   0.000    0.00
  21.000   20.04    9.35    0.61   0.000   0.200   0.000    0.00
  21.050   21.13    9.10    0.42   0.000   0.200   0.000    0.00
  21.100   20.76    8.67   -0.39   0.000   0.200   0.000    0.00
  21.150   20.67    8.24    0.06   0.000   0.200   0.000    0.00
  21.200   20.85    6.41   -0.28   0.000   0.200   0.000    0.00
  21.250   21.03    9.39   -0.25   0.000   0.200   0.000    0.00
  21.300   20.80    6.93    0.53   0.000   0.200   0.000    0.00
  21.350   20.41    5.36   -0.39   0.000   0.200   0.000    0.00
  21.400   20.22    5.08   -0.91   0.000   0.200   0.000    0.00
  21.450   21.69    8.34   -1.22   0.000   0.200   0.000    0.00
  21.500   20.31   10.24   -0.78   0.000   0.200   0.000    0.00
  21.550   19.98   12.23    0.73   0.000   0.200   0.000    0.00
  21.600   19.38   15.78    0.76   0.000   0.200   0.000    0.00
  21.650   19.12   15.78    0.84   0.000   0.200   0.000    0.00
  21.700   19.92   15.95    1.36   0.000   0.200   0.000    0.00
  21.750   20.01   14.73    1.76   0.000   0.200   0.000    0.00
  21.800   19.88   14.58    1.19   0.000   0.200   0.000    0.00
  21.850   18.99   16.92    1.18   0.000   0.200   0.000    0.00
  21.900   18.96   16.42    0.95   0.000   0.200   0.000    0.00
  21.950   18.45   14.07    1.86   0.000   0.200   0.000    0.00
  22.000   19.00   10.27    1.97   0.000   0.200   0.000    0.00
  22.050   18.56    9.73    1.71   0.000   0.200   0.000    0.00
  22.100   18.91    9.12    1.13   0.000   0.200   0.000    0.00
  22.150   19.69    9.79    1.38   0.000   0.200   0.000    0.00
  22.200   19.55   10.33    1.24   0.000   0.200   0.000    0.00
  22.250   18.53    8.58    1.34   0.000   0.200   0.000    0.00
  22.300   18.27    6.97    1.17   0.000   0.200   0.000    0.00
  22.350   17.93    6.12    1.33   0.000   0.200   0.000    0.00