! This hub-height wind-speed file was generated by TurbSim (v1.06.00, 21-Sep-2012) on 03-Feb-2018 at 23:33:44.
!
! The requested statistics for this data were:
!    Mean Total Wind Speed =    7.000 m/s
!    Turbulence Intensity  =   21.700%
!
!   Time  HorSpd  WndDir  VerSpd  HorShr  VerShr  LnVShr  GstSpd
!  (sec)   (m/s)   (deg)   (m/s)     (-)     (-)     (-)   (m/s)
   0.000    5.37  -21.50   -0.13   0.000   0.200   0.000    0.00
   0.050    5.30  -24.74    0.03   0.000   0.200   0.000    0.00
   0.100    5.01  -19.93    0.41   0.000   0.200   0.000    0.00
   0.150    5.14  -21.24    0.23   0.000   0.200   0.000    0.00
   0.200    5.10  -22.15   -0.06   0.000   0.200   0.000    0.00
   0.250    4.98  -22.11    0.14   0.000   0.200   0.000    0.00
   0.300    5.16  -20.61    0.14   0.000   0.200   0.000    0.00
   0.350    5.26  -18.28    0.35   0.000   0.200   0.000    0.00
   0.400    5.01  -18.37    0.27   0.000   0.200   0.000    0.00
   0.450    4.75  -19.30    0.48   0.000   0.200   0.000    0.00
   0.500    4.60  -21.65    0.39   0.000   0.200   0.000    0.00
   0.550    5.01  -19.22    0.22   0.000   0.200   0.000    0.00
   0.600    5.06  -19.59   -0.17   0.000   0.200   0.000    0.00
   0.650    4.96  -17.37   -0.12   0.000   0.200   0.000    0.00
   0.700    5.26  -18.95    0.01   0.000   0.200   0.000    0.00
   0.750    5.60  -17.15   -0.16   0.000   0.200   0.000    0.00
   0.800    5.46  -15.31   -0.10   0.000   0.200   0.000    0.00
   0.850    5.63  -16.60    0.26   0.000   0.200   0.000    0.00
   0.900    5.65  -15.73    0.31   0.000   0.200   0.000    0.00
   0.950    5.81  -16.69   -0.03   0.000   0.200   0.000    0.00
   1.000    5.71  -13.91   -0.44   0.000   0.200   0.000    0.00
   1.050    5.76  -15.70   -0.17   0.000   0.200   0.000    0.00
   1.100    5.65  -15.88   -0.06   0.000   0.200   0.000    0.00
   1.150    5.41  -16.01    0.23   0.000   0.200   0.000    0.00
   1.200    5.51  -14.95    0.15   0.000   0.200   0.000    0.00
   1.250    5.63  -18.70    0.73   0.000   0.200   0.000    0.00
   1.300    5.59  -21.88    0.93   0.000   0.200   0.000    0.00
   1.350    5.50  -19.95    1.05   0.000   0.200   0.000    0.00
   1.400    5.43  -20.77    1.13   0.000   0.200   0.000    0.00
   1.450    5.20  -21.30    1.23   0.000   0.200   0.000    0.00
   1.500    5.22  -20.34    1.38   0.000   0.200   0.000    0.00
   1.550    5.53  -21.42    1.61   0.000   0.200   0.000    0.00
   1.600    5.35  -16.95    1.70   0.000   0.200   0.000    0.00
   1.650    4.90  -15.21    1.34   0.000   0.200   0.000    0.00
   1.700    4.95  -16.86    1.02   0.000   0.200   0.000    0.00
   1.750    5.05  -12.76    0.98   0.000   0.200   0.000    0.00
   1.800    5.15  -13.52    0.59   0.000   0.200   0.000    0.00
   1.850    5.19  -13.36    0.44   0.000   0.200   0.000    0.00
   1.900    5.12  -14.66    0.57   0.000   0.200   0.000    0.00
   1.950    4.80  -11.54    0.87   0.000   0.200   0.000    0.00
   2.000    4.60  -13.77    0.76   0.000   0.200   0.000    0.00
   2.050    4.79  -11.50    0.55   0.000   0.200   0.000    0.00
   2.100    4.89   -7.16    0.45   0.000   0.200   0.000    0.00
   2.150    4.85   -3.51    0.51   0.000   0.200   0.000    0.00
   2.200    5.02   -2.58    0.37   0.000   0.200   0.000    0.00
   2.250    4.79   -6.02    0.66   0.000   0.200   0.000    0.00
   2.300    5.08   -4.67    0.50   0.000   0.200   0.000    0.00
   2.350    5.32   -4.30    0.06   0.000   0.200   0.000    0.00
   2.400    5.41   -4.67    0.25   0.000   0.200   0.000    0.00
   2.450    5.12   -4.73    0.50   0.000   0.200   0.000    0.00
   2.500    4.78   -3.37    1.00   0.000   0.200   0.000    0.00
   2.550    4.91   -4.27    0.88   0.000   0.200   0.000    0.00
   2.600    4.53   -2.18    0.94   0.000   0.200   0.000    0.00
   2.650    4.85   -5.08    0.88   0.000   0.200   0.000    0.00
   2.700    4.68   -1.58    0.83   0.000   0.200   0.000    0.00
   2.750    4.74   -2.03    1.09   0.000   0.200   0.000    0.00
   2.800    4.61   -2.54    1.40   0.000   0.200   0.000    0.00
   2.850    4.42   -0.88    1.58   0.000   0.200   0.000    0.00
   2.900    4.48   -0.61    2.00   0.000   0.200   0.000    0.00
   2.950    4.40   -1.46    1.71   0.000   0.200   0.000    0.00
   3.000    4.41   -1.26    1.83   0.000   0.200   0.000    0.00
   3.050    4.38   -0.97    1.59   0.000   0.200   0.000    0.00
   3.100    4.64   -0.34    1.46   0.000   0.200   0.000    0.00
   3.150    4.92   -2.87    1.70   0.000   0.200   0.000    0.00
   3.200    4.64   -4.31    1.47   0.000   0.200   0.000    0.00
   3.250    4.39   -2.94    1.11   0.000   0.200   0.000    0.00
   3.300    4.34   -7.70    0.95   0.000   0.200   0.000    0.00
   3.350    4.16   -8.43    0.57   0.000   0.200   0.000    0.00
   3.400    3.87   -4.16    0.18   0.000   0.200   0.000    0.00
   3.450    3.61   -0.54    0.17   0.000   0.200   0.000    0.00
   3.500    3.52   -4.69    0.60   0.000   0.200   0.000    0.00
   3.550    3.83   -8.56    0.60   0.000   0.200   0.000    0.00
   3.600    3.84   -8.46    0.62   0.000   0.200   0.000    0.00
   3.650    3.75   -1.10    0.53   0.000   0.200   0.000    0.00
   3.700    3.98   -1.66    0.46   0.000   0.200   0.000    0.00
   3.750    4.16   -1.10    0.32   0.000   0.200   0.000    0.00
   3.800    4.14    1.10    0.21   0.000   0.200   0.000    0.00
   3.850    4.32    0.60    0.24   0.000   0.200   0.000    0.00
   3.900    4.32   -2.20   -0.06   0.000   0.200   0.000    0.00
   3.950    3.97   -4.15    0.14   0.000   0.200   0.000    0.00
   4.000    3.71   -3.68    0.16   0.000   0.200   0.000    0.00
   4.050    4.21   -8.30   -0.10   0.000   0.200   0.000    0.00
   4.100    4.29   -5.01   -0.29   0.000   0.200   0.000    0.00
   4.150    4.14   -4.35   -0.31   0.000   0.200   0.000    0.00
   4.200    3.92   -8.03    0.19   0.000   0.200   0.000    0.00
   4.250    4.27   -7.49    0.27   0.000   0.200   0.000    0.00
   4.300    4.20   -4.25    0.43   0.000   0.200   0.000    0.00
   4.350    4.14   -2.75    0.15   0.000   0.200   0.000    0.00
   4.400    4.30   -0.17    0.06   0.000   0.200   0.000    0.00
   4.450    4.43    2.23   -0.33   0.000   0.200   0.000    0.00
   4.500    4.28    0.75   -0.08   0.000   0.200   0.000    0.00
   4.550    4.19   -0.28    0.35   0.000   0.200   0.000    0.00
   4.600    4.20   -1.64    0.23   0.000   0.200   0.000    0.00
   4.650    4.13    2.09    0.22   0.000   0.200   0.000    0.00
   4.700    4.30    5.90    0.46   0.000   0.200   0.000    0.00
   4.750    4.29    8.71    0.60   0.000   0.200   0.000    0.00
   4.800    4.49    6.27    0.76   0.000   0.200   0.000    0.00
   4.850    4.49    4.47    0.97   0.000   0.200   0.000    0.00
   4.900    4.52    3.98    0.75   0.000   0.200   0.000    0.00
   4.950    4.35    1.08    0.89   0.000   0.200   0.000    0.00
   5.000    4.19   -1.27    0.99   0.000   0.200   0.000    0.00
   5.050    4.77   -5.83    0.55   0.000   0.200   0.000    0.00
   5.100    4.60   -7.74    0.62   0.000   0.200   0.000    0.00
   5.150    4.62   -6.80    0.51   0.000   0.200   0.000    0.00
   5.200    4.36  -11.93   -0.09   0.000   0.200   0.000    0.00
   5.250    4.39  -13.52    0.00   0.000   0.200   0.000    0.00
   5.300    4.35   -9.61    0.31   0.000   0.200   0.000    0.00
   5.350    4.46   -8.15    0.51   0.000   0.200   0.000    0.00
   5.400    4.57  -10.86    0.25   0.000   0.200   0.000    0.00
   5.450    4.44  -14.20    0.14   0.000   0.200   0.000    0.00
   5.500    4.41  -15.48    0.63   0.000   0.200   0.000    0.00
   5.550    4.44   -8.78    0.53   0.000   0.200   0.000    0.00
   5.600    4.61  -11.71    0.54   0.000   0.200   0.000    0.00
   5.650    4.65  -10.55    0.79   0.000   0.200   0.000    0.00
   5.700    4.88   -8.76    1.35   0.000   0.200   0.000    0.00
   5.750    5.17   -8.38    1.21   0.000   0.200   0.000    0.00
   5.800    4.73  -11.02    1.44   0.000   0.200   0.000    0.00
   5.850    4.58  -14.86    1.02   0.000   0.200   0.000    0.00
   5.900    4.66  -13.50    0.99   0.000   0.200   0.000    0.00
   5.950    4.64  -15.01    1.37   0.000   0.200   0.000    0.00
   6.000    4.63  -13.63    1.19   0.000   0.200   0.000    0.00
   6.050    4.25  -12.26    1.08   0.000   0.200   0.000    0.00
   6.100    4.21  -15.13    1.53   0.000   0.200   0.000    0.00
   6.150    4.53  -12.01    1.27   0.000   0.200   0.000    0.00
   6.200    4.52  -15.34    0.96   0.000   0.200   0.000    0.00
   6.250    4.13  -12.42    1.01   0.000   0.200   0.000    0.00
   6.300    4.25  -16.10    1.12   0.000   0.200   0.000    0.00
   6.350    4.14  -14.63    0.75   0.000   0.200   0.000    0.00
   6.400    3.74  -17.52    0.59   0.000   0.200   0.000    0.00
   6.450    3.80  -11.79    0.50   0.000   0.200   0.000    0.00
   6.500    3.73  -12.50   -0.14   0.000   0.200   0.000    0.00
   6.550    3.76  -11.77   -0.54   0.000   0.200   0.000    0.00
   6.600    3.67  -10.51   -0.33   0.000   0.200   0.000    0.00
   6.650    3.47   -6.89    0.11   0.000   0.200   0.000    0.00
   6.700    3.70   -9.44   -0.17   0.000   0.200   0.000    0.00
   6.750    3.78  -11.74   -0.27   0.000   0.200   0.000    0.00
   6.800    3.87  -11.97    0.49   0.000   0.200   0.000    0.00
   6.850    3.93  -17.20    0.34   0.000   0.200   0.000    0.00
   6.900    3.84  -16.95    0.28   0.000   0.200   0.000    0.00
   6.950    3.94  -17.80    0.19   0.000   0.200   0.000    0.00
   7.000    4.01  -16.93    0.19   0.000   0.200   0.000    0.00
   7.050    3.62   -9.25    0.50   0.000   0.200   0.000    0.00
   7.100    3.68  -10.91    0.38   0.000   0.200   0.000    0.00
   7.150    3.47  -16.05   -0.08   0.000   0.200   0.000    0.00
   7.200    3.62  -21.20   -0.35   0.000   0.200   0.000    0.00
   7.250    3.71  -18.68   -0.14   0.000   0.200   0.000    0.00
   7.300    3.68  -17.93   -0.23   0.000   0.200   0.000    0.00
   7.350    3.93  -13.17   -0.19   0.000   0.200   0.000    0.00
   7.400    3.66  -13.85   -0.23   0.000   0.200   0.000    0.00
   7.450    3.34  -16.38    0.05   0.000   0.200   0.000    0.00
   7.500    2.97  -16.71    0.05   0.000   0.200   0.000    0.00
   7.550    3.07  -16.19    0.16   0.000   0.200   0.000    0.00
   7.600    3.08  -15.36    0.03   0.000   0.200   0.000    0.00
   7.650    2.99  -13.33   -0.42   0.000   0.200   0.000    0.00
   7.700    3.22  -13.28   -0.27   0.000   0.200   0.000    0.00
   7.750    3.31  -15.25   -0.45   0.000   0.200   0.000    0.00
   7.800    2.93  -13.93   -0.25   0.000   0.200   0.000    0.00
   7.850    2.85  -12.31    0.13   0.000   0.200   0.000    0.00
   7.900    2.79  -15.54    0.21   0.000   0.200   0.000    0.00
   7.950    2.50  -11.78    0.55   0.000   0.200   0.000    0.00
   8.000    2.34  -12.16    0.04   0.000   0.200   0.000    0.00
   8.050    2.57  -13.88   -0.13   0.000   0.200   0.000    0.00
   8.100    2.61  -11.63   -0.33   0.000   0.200   0.000    0.00
   8.150    3.03  -21.90   -0.59   0.000   0.200   0.000    0.00
   8.200    2.96  -15.74   -0.74   0.000   0.200   0.000    0.00
   8.250    3.06  -16.29   -0.60   0.000   0.200   0.000    0.00
   8.300    2.99  -14.52   -0.47   0.000   0.200   0.000    0.00
   8.350    3.00  -15.21   -0.62   0.000   0.200   0.000    0.00
   8.400    3.45  -20.07   -0.32   0.000   0.200   0.000    0.00
   8.450    3.14  -21.27   -0.44   0.000   0.200   0.000    0.00
   8.500    3.21  -23.94   -0.08   0.000   0.200   0.000    0.00
   8.550    3.47  -21.43    0.41   0.000   0.200   0.000    0.00
   8.600    3.57  -14.31    0.34   0.000   0.200   0.000    0.00
   8.650    3.58  -13.59   -0.39   0.000   0.200   0.000    0.00
   8.700    3.79   -9.87   -0.54   0.000   0.200   0.000    0.00
   8.750    3.55  -10.41   -0.01   0.000   0.200   0.000    0.00
   8.800    3.79  -11.42   -0.27   0.000   0.200   0.000    0.00
   8.850    3.82  -10.41   -0.02   0.000   0.200   0.000    0.00
   8.900    4.00   -6.10   -0.50   0.000   0.200   0.000    0.00
   8.950    3.98   -2.99   -0.47   0.000   0.200   0.000    0.00
   9.000    4.08   -5.71   -0.78   0.000   0.200   0.000    0.00
   9.050    4.18   -2.82   -0.92   0.000   0.200   0.000    0.00
   9.100    4.04   -0.55   -0.77   0.000   0.200   0.000    0.00
   9.150    4.00   -4.16   -0.62   0.000   0.200   0.000    0.00
   9.200    4.21   -9.57   -1.05   0.000   0.200   0.000    0.00
   9.250    4.20  -11.33   -0.72   0.000   0.200   0.000    0.00
   9.300    4.32  -12.20   -0.68   0.000   0.200   0.000    0.00
   9.350    4.39   -9.20   -1.30   0.000   0.200   0.000    0.00
   9.400    4.29  -12.73   -1.38   0.000   0.200   0.000    0.00
   9.450    4.23   -8.92   -1.26   0.000   0.200   0.000    0.00
   9.500    4.22   -5.32   -1.26   0.000   0.200   0.000    0.00
   9.550    4.65   -9.16   -0.80   0.000   0.200   0.000    0.00
   9.600    4.56  -14.93   -0.75   0.000   0.200   0.000    0.00
   9.650    4.33   -9.32   -0.76   0.000   0.200   0.000    0.00
   9.700    4.19   -9.70   -0.58   0.000   0.200   0.000    0.00
   9.750    4.27  -11.65   -0.98   0.000   0.200   0.000    0.00
   9.800    4.41  -12.24   -0.84   0.000   0.200   0.000    0.00
   9.850    4.13  -11.57   -0.66   0.000   0.200   0.000    0.00
   9.900    4.00  -11.62   -0.77   0.000   0.200   0.000    0.00
   9.950    4.13  -11.93   -0.67   0.000   0.200   0.000    0.00
  10.000    3.98   -7.41   -0.94   0.000   0.200   0.000    0.00
  10.050    4.03   -5.06   -0.58   0.000   0.200   0.000    0.00
  10.100    4.20   -8.69   -0.40   0.000   0.200   0.000    0.00
  10.150    3.99   -4.56   -0.75   0.000   0.200   0.000    0.00
  10.200    4.12    2.53   -0.47   0.000   0.200   0.000    0.00
  10.250    3.91   -4.17   -0.42   0.000   0.200   0.000    0.00
  10.300    3.92   -6.86   -0.22   0.000   0.200   0.000    0.00
  10.350    4.10  -10.82   -0.12   0.000   0.200   0.000    0.00
  10.400    4.18  -12.24   -0.26   0.000   0.200   0.000    0.00
  10.450    4.27   -9.44   -0.40   0.000   0.200   0.000    0.00
  10.500    4.42  -11.27   -0.08   0.000   0.200   0.000    0.00
  10.550    4.21  -10.16   -0.32   0.000   0.200   0.000    0.00
  10.600    3.97  -10.55    0.13   0.000   0.200   0.000    0.00
  10.650    3.92   -6.43    0.18   0.000   0.200   0.000    0.00
  10.700    4.03   -5.05    0.44   0.000   0.200   0.000    0.00
  10.750    4.19   -8.22    0.31   0.000   0.200   0.000    0.00
  10.800    3.98  -11.27    0.57   0.000   0.200   0.000    0.00
  10.850    3.94  -12.62    0.08   0.000   0.200   0.000    0.00
  10.900    4.11  -12.10    0.48   0.000   0.200   0.000    0.00
  10.950    4.45  -12.23    0.77   0.000   0.200   0.000    0.00
  11.000    4.53  -12.43    0.54   0.000   0.200   0.000    0.00
  11.050    4.52  -14.28    0.44   0.000   0.200   0.000    0.00
  11.100    4.64   -8.41    0.81   0.000   0.200   0.000    0.00
  11.150    4.62   -2.99    0.95   0.000   0.200   0.000    0.00
  11.200    4.61   -3.98    0.68   0.000   0.200   0.000    0.00
  11.250    4.64   -3.97    0.73   0.000   0.200   0.000    0.00
  11.300    4.64   -7.04    0.69   0.000   0.200   0.000    0.00
  11.350    4.58   -7.58    0.35   0.000   0.200   0.000    0.00
  11.400    4.70   -9.17    0.18   0.000   0.200   0.000    0.00
  11.450    4.20   -4.46    0.18   0.000   0.200   0.000    0.00
  11.500    4.23   -4.34   -0.01   0.000   0.200   0.000    0.00
  11.550    4.11   -8.50    0.37   0.000   0.200   0.000    0.00
  11.600    4.09   -4.70    0.36   0.000   0.200   0.000    0.00
  11.650    4.14   -0.38    0.19   0.000   0.200   0.000    0.00
  11.700    4.39    2.28   -0.05   0.000   0.200   0.000    0.00
  11.750    4.24    2.09   -0.25   0.000   0.200   0.000    0.00
  11.800    4.21    6.45    0.06   0.000   0.200   0.000    0.00
  11.850    4.37    7.10    0.32   0.000   0.200   0.000    0.00
  11.900    4.20    5.52    0.54   0.000   0.200   0.000    0.00
  11.950    4.01   10.21    0.30   0.000   0.200   0.000    0.00
  12.000    4.00    8.29    0.22   0.000   0.200   0.000    0.00
  12.050    4.06    9.09    0.03   0.000   0.200   0.000    0.00
  12.100    3.98    7.44   -0.14   0.000   0.200   0.000    0.00
  12.150    4.11    9.89    0.25   0.000   0.200   0.000    0.00
  12.200    4.11    7.26    0.44   0.000   0.200   0.000    0.00
  12.250    4.60   12.04    0.37   0.000   0.200   0.000    0.00
  12.300    4.94    6.01    0.25   0.000   0.200   0.000    0.00
  12.350    5.03   12.32    0.10   0.000   0.200   0.000    0.00
  12.400    4.98   14.70    0.25   0.000   0.200   0.000    0.00
  12.450    5.13   13.98    0.33   0.000   0.200   0.000    0.00
  12.500    4.91   15.68    0.33   0.000   0.200   0.000    0.00
  12.550    4.73   17.41    0.32   0.000   0.200   0.000    0.00
  12.600    4.78   18.11    0.12   0.000   0.200   0.000    0.00
  12.650    5.03   14.87    0.07   0.000   0.200   0.000    0.00
  12.700    4.97   12.66    0.22   0.000   0.200   0.000    0.00
  12.750    4.96   12.45    0.48   0.000   0.200   0.000    0.00
  12.800    4.99   12.11    0.21   0.000   0.200   0.000    0.00
  12.850    4.76   13.94    0.15   0.000   0.200   0.000    0.00
  12.900    5.01   15.83   -0.08   0.000   0.200   0.000    0.00
  12.950    5.06   17.76    0.02   0.000   0.200   0.000    0.00
  13.000    5.28   19.16    0.28   0.000   0.200   0.000    0.00
  13.050    5.15   19.26    0.34   0.000   0.200   0.000    0.00
  13.100    5.06   23.34    0.21   0.000   0.200   0.000    0.00
  13.150    5.15   22.85    0.52   0.000   0.200   0.000    0.00
  13.200    5.22   22.00    1.11   0.000   0.200   0.000    0.00
  13.250    4.98   24.78    0.52   0.000   0.200   0.000    0.00
  13.300    5.15   28.17    0.93   0.000   0.200   0.000    0.00
  13.350    5.08   29.42    0.74   0.000   0.200   0.000    0.00
  13.400    5.23   29.85    0.45   0.000   0.200   0.000    0.00
  13.450    5.41   30.88    0.37   0.000   0.200   0.000    0.00
  13.500    5.51   32.56    0.39   0.000   0.200   0.000    0.00
  13.550    5.87   33.00    0.13   0.000   0.200   0.000    0.00
  13.600    5.78   33.93    0.35   0.000   0.200   0.000    0.00
  13.650    5.71   33.32    0.70   0.000   0.200   0.000    0.00
  13.700    5.66   26.81    0.79   0.000   0.200   0.000    0.00
  13.750    5.33   25.27    0.71   0.000   0.200   0.000    0.00
  13.800    5.46   28.31    0.36   0.000   0.200   0.000    0.00
  13.850    5.82   31.13    0.26   0.000   0.200   0.000    0.00
  13.900    5.76   27.76    0.53   0.000   0.200   0.000    0.00
  13.950    5.40   27.25    0.86   0.000   0.200   0.000    0.00
  14.000    5.76   29.86    1.02   0.000   0.200   0.000    0.00
  14.050    6.11   27.22    1.13   0.000   0.200   0.000    0.00
  14.100    6.36   26.63    1.23   0.000   0.200   0.000    0.00
  14.150    6.37   25.51    1.26   0.000   0.200   0.000    0.00
  14.200    6.34   24.20    1.06   0.000   0.200   0.000    0.00
  14.250    6.04   25.63    1.10   0.000   0.200   0.000    0.00
  14.300    6.29   24.34    0.59   0.000   0.200   0.000    0.00
  14.350    6.49   25.67    0.34   0.000   0.200   0.000    0.00
  14.400    6.25   22.16    0.37   0.000   0.200   0.000    0.00
  14.450    6.27   22.58    0.67   0.000   0.200   0.000    0.00
  14.500    6.11   18.80    0.43   0.000   0.200   0.000    0.00
  14.550    6.08   17.04    0.39   0.000   0.200   0.000    0.00
  14.600    5.97   20.88    0.28   0.000   0.200   0.000    0.00
  14.650    6.03   23.60    0.03   0.000   0.200   0.000    0.00
  14.700    6.22   22.56    0.51   0.000   0.200   0.000    0.00
  14.750    6.08   20.69    0.39   0.000   0.200   0.000    0.00
  14.800    6.20   18.09    0.29   0.000   0.200   0.000    0.00
  14.850    6.36   22.14    0.16   0.000   0.200   0.000    0.00
  14.900    6.79   24.41    0.02   0.000   0.200   0.000    0.00
  14.950    6.78   24.71   -0.13   0.000   0.200   0.000    0.00
  15.000    6.78   25.31   -0.10   0.000   0.200   0.000    0.00
  15.050    6.98   23.01   -0.08   0.000   0.200   0.000    0.00
  15.100    6.68   22.99    0.04   0.000   0.200   0.000    0.00
  15.150    7.14   23.79   -0.32   0.000   0.200   0.000    0.00
  15.200    7.02   23.57   -0.55   0.000   0.200   0.000    0.00
  15.250    6.80   20.69   -0.88   0.000   0.200   0.000    0.00
  15.300    6.73   18.54   -0.82   0.000   0.200   0.000    0.00
  15.350    6.80   16.94   -0.28   0.000   0.200   0.000    0.00
  15.400    7.00   17.74    0.01   0.000   0.200   0.000    0.00
  15.450    7.14   19.64   -0.01   0.000   0.200   0.000    0.00
  15.500    7.22   19.79   -0.18   0.000   0.200   0.000    0.00
  15.550    7.34   17.66    0.02   0.000   0.200   0.000    0.00
  15.600    7.58   17.16    0.21   0.000   0.200   0.000    0.00
  15.650    7.24   19.01   -0.18   0.000   0.200   0.000    0.00
  15.700    7.14   18.97   -0.69   0.000   0.200   0.000    0.00
  15.750    6.80   17.79   -0.67   0.000   0.200   0.000    0.00
  15.800    6.71   15.83   -0.22   0.000   0.200   0.000    0.00
  15.850    7.01   19.22    0.09   0.000   0.200   0.000    0.00
  15.900    6.83   20.32   -0.26   0.000   0.200   0.000    0.00
  15.950    6.62   16.96    0.07   0.000   0.200   0.000    0.00
  16.000    6.60   18.82    0.06   0.000   0.200   0.000    0.00
  16.050    6.50   20.36    0.15   0.000   0.200   0.000    0.00
  16.100    6.27   18.91   -0.05   0.000   0.200   0.000    0.00
  16.150    6.82   20.66   -0.31   0.000   0.200   0.000    0.00
  16.200    6.79   18.89   -0.57   0.000   0.200   0.000    0.00
  16.250    7.07   22.08   -0.69   0.000   0.200   0.000    0.00
  16.300    6.81   21.06   -0.53   0.000   0.200   0.000    0.00
  16.350    6.72   21.49   -0.37   0.000   0.200   0.000    0.00
  16.400    6.95   22.66   -0.17   0.000   0.200   0.000    0.00
  16.450    7.08   22.31   -0.04   0.000   0.200   0.000    0.00
  16.500    7.10   25.42   -0.01   0.000   0.200   0.000    0.00
  16.550    6.96   24.17   -0.14   0.000   0.200   0.000    0.00
  16.600    6.71   23.06   -0.36   0.000   0.200   0.000    0.00
  16.650    6.61   21.27   -0.16   0.000   0.200   0.000    0.00
  16.700    6.59   17.86    0.05   0.000   0.200   0.000    0.00
  16.750    6.56   16.97    0.25   0.000   0.200   0.000    0.00
  16.800    6.72   20.04    0.39   0.000   0.200   0.000    0.00
  16.850    6.69   16.79    0.27   0.000   0.200   0.000    0.00
  16.900    6.60   16.02    0.57   0.000   0.200   0.000    0.00
  16.950    6.68   13.06    0.38   0.000   0.200   0.000    0.00
  17.000    6.41   14.61   -0.18   0.000   0.200   0.000    0.00
  17.050    6.22   15.25   -0.10   0.000   0.200   0.000    0.00
  17.100    6.25   13.32    0.08   0.000   0.200   0.000    0.00
  17.150    6.53   16.42   -0.07   0.000   0.200   0.000    0.00
  17.200    6.46   14.54    0.15   0.000   0.200   0.000    0.00
  17.250    6.11   11.07   -0.50   0.000   0.200   0.000    0.00
  17.300    6.26   14.24   -0.67   0.000   0.200   0.000    0.00
  17.350    6.17   14.81   -0.57   0.000   0.200   0.000    0.00
  17.400    6.01   14.81   -0.39   0.000   0.200   0.000    0.00
  17.450    6.11   15.23   -0.32   0.000   0.200   0.000    0.00
  17.500    5.88   13.14    0.05   0.000   0.200   0.000    0.00
  17.550    5.82   15.11    0.40   0.000   0.200   0.000    0.00
  17.600    5.76   18.15    0.55   0.000   0.200   0.000    0.00
  17.650    5.89   19.99    0.27   0.000   0.200   0.000    0.00
  17.700    5.63   18.02    0.58   0.000   0.200   0.000    0.00
  17.750    5.71   17.83    0.50   0.000   0.200   0.000    0.00
  17.800    5.95   13.57    0.78   0.000   0.200   0.000    0.00
  17.850    6.06   11.11    0.49   0.000   0.200   0.000    0.00
  17.900    6.34    9.12    0.49   0.000   0.200   0.000    0.00
  17.950    6.04    7.43    0.37   0.000   0.200   0.000    0.00
  18.000    5.81    3.54    0.05   0.000   0.200   0.000    0.00
  18.050    6.12    3.16    0.26   0.000   0.200   0.000    0.00
  18.100    6.14    4.41    0.52   0.000   0.200   0.000    0.00
  18.150    6.29    7.70    0.47   0.000   0.200   0.000    0.00
  18.200    6.37   12.84    0.64   0.000   0.200   0.000    0.00
  18.250    6.49   13.59    0.33   0.000   0.200   0.000    0.00
  18.300    6.63   10.57   -0.02   0.000   0.200   0.000    0.00
  18.350    6.21    9.55   -0.19   0.000   0.200   0.000    0.00
  18.400    5.97    9.72   -0.56   0.000   0.200   0.000    0.00
  18.450    6.13   10.07   -1.00   0.000   0.200   0.000    0.00
  18.500    6.07    8.97   -1.06   0.000   0.200   0.000    0.00
  18.550    6.51    9.27   -0.94   0.000   0.200   0.000    0.00
  18.600    6.49    9.84   -0.70   0.000   0.200   0.000    0.00
  18.650    6.69    9.32   -0.28   0.000   0.200   0.000    0.00
  18.700    6.78   12.22   -0.09   0.000   0.200   0.000    0.00
  18.750    6.65   13.83   -0.34   0.000   0.200   0.000    0.00
  18.800    6.49   14.02   -0.52   0.000   0.200   0.000    0.00
  18.850    6.66   12.37   -0.60   0.000   0.200   0.000    0.00
  18.900    6.91   12.68   -0.64   0.000   0.200   0.000    0.00
  18.950    6.86   11.89   -0.57   0.000   0.200   0.000    0.00
  19.000    7.00   11.38   -0.36   0.000   0.200   0.000    0.00
  19.050    6.51    8.93   -0.58   0.000   0.200   0.000    0.00
  19.100    6.76    7.09   -0.71   0.000   0.200   0.000    0.00
  19.150    6.85    7.97   -0.77   0.000   0.200   0.000    0.00
  19.200    6.36    9.39   -0.50   0.000   0.200   0.000    0.00
  19.250    6.47    5.95   -0.69   0.000   0.200   0.000    0.00
  19.300    6.19    3.70   -0.75   0.000   0.200   0.000    0.00
  19.350    6.17    3.29   -0.56   0.000   0.200   0.000    0.00
  19.400    6.50    4.60   -0.41   0.000   0.200   0.000    0.00
  19.450    6.41    6.71   -0.02   0.000   0.200   0.000    0.00
  19.500    6.33    3.30    0.05   0.000   0.200   0.000    0.00
  19.550    6.56    1.03    0.25   0.000   0.200   0.000    0.00
  19.600    6.92   -0.90    0.12   0.000   0.200   0.000    0.00
  19.650    6.93   -4.12    0.58   0.000   0.200   0.000    0.00
  19.700    6.66   -2.10    0.77   0.000   0.200   0.000    0.00
  19.750    6.89    1.21    0.89   0.000   0.200   0.000    0.00
  19.800    6.74    0.56    0.49   0.000   0.200   0.000    0.00
  19.850    6.64   -1.76    0.26   0.000   0.200   0.000    0.00
  19.900    6.57   -0.69    0.30   0.000   0.200   0.000    0.00
  19.950    7.01    1.37   -0.05   0.000   0.200   0.000    0.00
  20.000    6.91   -0.63   -0.13   0.000   0.200   0.000    0.00
  20.050    6.77   -1.76   -0.20   0.000   0.200   0.000    0.00
  20.100    6.92   -0.45   -0.58   0.000   0.200   0.000    0.00
  20.150    6.70   -1.55   -0.81   0.000   0.200   0.000    0.00
  20.200    6.87    0.30   -0.69   0.000   0.200   0.000    0.00
  20.250    6.87    1.12   -0.74   0.000   0.200   0.000    0.00
  20.300    6.89   -1.51   -0.73   0.000   0.200   0.000    0.00
  20.350    6.77    0.00   -1.02   0.000   0.200   0.000    0.00
  20.400    6.61   -3.51   -0.97   0.000   0.200   0.000    0.00
  20.450    6.61   -3.70   -1.06   0.000   0.200   0.000    0.00
  20.500    6.55   -0.67   -1.00   0.000   0.200   0.000    0.00
  20.550    6.63   -1.73   -0.72   0.000   0.200   0.000    0.00
  20.600    6.49   -2.25   -0.95   0.000   0.200   0.000    0.00
  20.650    6.26   -0.80   -1.03   0.000   0.200   0.000    0.00
  20.700    6.36   -0.01   -1.58   0.000   0.200   0.000    0.00
  20.750    6.56   -0.46   -1.53   0.000   0.200   0.000    0.00
  20.800    6.83   -0.43   -1.44   0.000   0.200   0.000    0.00
  20.850    6.77   -1.19   -1.22   0.000   0.200   0.000    0.00
  20.900    7.18   -1.81   -0.94   0.000   0.200   0.000    0.00
  20.950    7.14   -1.54   -0.54   0.000   0.200   0.000    0.00
  21.000    7.19   -1.17   -0.22   0.000   0.200   0.000    0.00
  21.050    7.31   -0.59   -0.09   0.000   0.200   0.000    0.00
  21.100    7.21   -0.69   -0.18   0.000   0.200   0.000    0.00
  21.150    7.14   -0.42   -0.16   0.000   0.200   0.000    0.00
  21.200    6.99   -3.45   -0.25   0.000   0.200   0.000    0.00
  21.250    6.90   -3.51   -0.37   0.000   0.200   0.000    0.00
  21.300    6.86   -1.93   -0.60   0.000   0.200   0.000    0.00
  21.350    6.99    0.31   -0.62   0.000   0.200   0.000    0.00
  21.400    6.98   -0.85   -0.76   0.000   0.200   0.000    0.00
  21.450    7.24   -1.70   -0.66   0.000   0.200   0.000    0.00
  21.500    7.10    0.29   -0.59   0.000   0.200   0.000    0.00
  21.550    7.47    0.30   -0.28   0.000   0.200   0.000    0.00
  21.600    7.60   -0.10    0.20   0.000   0.200   0.000    0.00
  21.650    7.57   -2.64   -0.16   0.000   0.200   0.000    0.00
  21.700    7.54   -2.51   -0.22   0.000   0.200   0.000    0.00
  21.750    7.37   -3.80   -0.16   0.000   0.200   0.000    0.00
  21.800    7.44   -3.12   -0.26   0.000   0.200   0.000    0.00
  21.850    7.39   -4.83    0.05   0.000   0.200   0.000    0.00
  21.900    7.73   -5.47   -0.14   0.000   0.200   0.000    0.00
  21.950    7.92   -5.43    0.09   0.000   0.200   0.000    0.00
  22.000    7.94   -8.50    0.20   0.000   0.200   0.000    0.00
  22.050    7.76   -9.79    0.45   0.000   0.200   0.000    0.00
  22.100    7.51   -9.44    0.77   0.000   0.200   0.000    0.00
  22.150    7.82   -5.43    0.61   0.000   0.200   0.000    0.00
  22.200    7.78   -4.80    0.55   0.000   0.200   0.000    0.00
  22.250    7.82   -6.72   -0.14   0.000   0.200   0.000    0.00
  22.300    7.99   -7.81   -0.26   0.000   0.200   0.000    0.00
  22.350    8.25   -8.61   -0.18   0.000   0.200   0.000    0.00