! This hub-height wind-speed file was generated by TurbSim (v1.06.00, 21-Sep-2012) on 03-Feb-2018 at 23:31:27.
!
! The requested statistics for this data were:
!    Mean Total Wind Speed =   13.000 m/s
!    Turbulence Intensity  =   16.531%
!
!   Time  HorSpd  WndDir  VerSpd  HorShr  VerShr  LnVShr  GstSpd
!  (sec)   (m/s)   (deg)   (m/s)     (-)     (-)     (-)   (m/s)
   0.000   14.51    5.11    1.26   0.000   0.200   0.000    0.00
   0.050   15.16    7.60    1.32   0.000   0.200   0.000    0.00
   0.100   15.24    7.78    0.70   0.000   0.200   0.000    0.00
   0.150   15.30    6.83    0.40   0.000   0.200   0.000    0.00
   0.200   14.97    8.52    0.27   0.000   0.200   0.000    0.00
   0.250   14.75    8.53    0.06   0.000   0.200   0.000    0.00
   0.300   14.58   10.56    0.62   0.000   0.200   0.000    0.00
   0.350   13.92   11.38    0.57   0.000   0.200   0.000    0.00
   0.400   14.60   10.10    0.74   0.000   0.200   0.000    0.00
   0.450   14.61   13.22    0.46   0.000   0.200   0.000    0.00
   0.500   14.70   12.33   -0.23   0.000   0.200   0.000    0.00
   0.550   14.58    9.64   -0.42   0.000   0.200   0.000    0.00
   0.600   14.79    8.68   -0.12   0.000   0.200   0.000    0.00
   0.650   14.76    8.88    0.07   0.000   0.200   0.000    0.00
   0.700   14.53    9.25    0.06   0.000   0.200   0.000    0.00
   0.750   14.64    9.00    0.17   0.000   0.200   0.000    0.00
   0.800   14.04    9.30   -0.35   0.000   0.200   0.000    0.00
   0.850   14.09    5.62    0.01   0.000   0.200   0.000    0.00
   0.900   13.91    8.54   -0.20   0.000   0.200   0.000    0.00
   0.950   13.41    9.53    0.41   0.000   0.200   0.000    0.00
   1.000   13.44    8.85    0.71   0.000   0.200   0.000    0.00
   1.050   13.78    5.99    0.35   0.000   0.200   0.000    0.00
   1.100   14.35    5.44    0.63   0.000   0.200   0.000    0.00
   1.150   14.83    7.80    0.57   0.000   0.200   0.000    0.00
   1.200   14.61    7.04    0.84   0.000   0.200   0.000    0.00
   1.250   14.73    4.17    0.87   0.000   0.200   0.000    0.00
   1.300   15.01    3.62    0.85   0.000   0.200   0.000    0.00
   1.350   15.04    5.65    1.14   0.000   0.200   0.000    0.00
   1.400   15.91    4.69    0.70   0.000   0.200   0.000    0.00
   1.450   15.46    4.94    0.16   0.000   0.200   0.000    0.00
   1.500   15.23    4.71   -0.09   0.000   0.200   0.000    0.00
   1.550   15.53    5.33   -0.22   0.000   0.200   0.000    0.00
   1.600   15.56    4.62   -0.90   0.000   0.200   0.000    0.00
   1.650   15.74    5.30   -1.37   0.000   0.200   0.000    0.00
   1.700   16.04    3.89   -1.18   0.000   0.200   0.000    0.00
   1.750   15.55    4.49   -1.25   0.000   0.200   0.000    0.00
   1.800   16.10    4.60   -0.72   0.000   0.200   0.000    0.00
   1.850   16.36    4.58   -0.25   0.000   0.200   0.000    0.00
   1.900   16.15    2.59    0.08   0.000   0.200   0.000    0.00
   1.950   16.03    0.62   -0.08   0.000   0.200   0.000    0.00
   2.000   15.91   -0.95   -0.42   0.000   0.200   0.000    0.00
   2.050   15.78   -1.70   -0.46   0.000   0.200   0.000    0.00
   2.100   15.94   -2.11   -0.76   0.000   0.200   0.000    0.00
   2.150   16.13   -0.36   -0.65   0.000   0.200   0.000    0.00
   2.200   16.52    0.16   -0.53   0.000   0.200   0.000    0.00
   2.250   16.41    2.07   -0.92   0.000   0.200   0.000    0.00
   2.300   15.83    6.76   -0.86   0.000   0.200   0.000    0.00
   2.350   16.47    3.45   -0.58   0.000   0.200   0.000    0.00
   2.400   16.92    4.01   -0.90   0.000   0.200   0.000    0.00
   2.450   17.21    5.10   -1.44   0.000   0.200   0.000    0.00
   2.500   17.01    5.95   -1.60   0.000   0.200   0.000    0.00
   2.550   16.94    5.79   -1.27   0.000   0.200   0.000    0.00
   2.600   17.06    3.67   -0.76   0.000   0.200   0.000    0.00
   2.650   17.16    4.45   -0.79   0.000   0.200   0.000    0.00
   2.700   17.78    4.39   -0.56   0.000   0.200   0.000    0.00
   2.750   18.07    2.52   -0.38   0.000   0.200   0.000    0.00
   2.800   17.89    1.33   -0.55   0.000   0.200   0.000    0.00
   2.850   17.35    1.53   -0.99   0.000   0.200   0.000    0.00
   2.900   17.21    2.77   -0.28   0.000   0.200   0.000    0.00
   2.950   17.61    1.71    0.09   0.000   0.200   0.000    0.00
   3.000   17.31    1.73    0.40   0.000   0.200   0.000    0.00
   3.050   16.91    0.72    0.36   0.000   0.200   0.000    0.00
   3.100   16.61    1.28    0.32   0.000   0.200   0.000    0.00
   3.150   16.24    2.93   -0.18   0.000   0.200   0.000    0.00
   3.200   15.86    2.65   -0.28   0.000   0.200   0.000    0.00
   3.250   15.72    3.73   -0.01   0.000   0.200   0.000    0.00
   3.300   15.79    3.04   -0.73   0.000   0.200   0.000    0.00
   3.350   15.94    0.93   -1.00   0.000   0.200   0.000    0.00
   3.400   15.74    0.86   -1.33   0.000   0.200   0.000    0.00
   3.450   15.54    1.34   -1.25   0.000   0.200   0.000    0.00
   3.500   15.74    2.35   -0.87   0.000   0.200   0.000    0.00
   3.550   15.82    2.05   -1.04   0.000   0.200   0.000    0.00
   3.600   15.84   -0.04   -0.94   0.000   0.200   0.000    0.00
   3.650   15.88    0.35   -1.00   0.000   0.200   0.000    0.00
   3.700   16.88    1.44   -1.29   0.000   0.200   0.000    0.00
   3.750   16.82    1.76   -0.54   0.000   0.200   0.000    0.00
   3.800   16.52    0.49   -0.04   0.000   0.200   0.000    0.00
   3.850   16.22   -0.10   -0.14   0.000   0.200   0.000    0.00
   3.900   15.93    4.07    0.09   0.000   0.200   0.000    0.00
   3.950   16.04    2.79    0.61   0.000   0.200   0.000    0.00
   4.000   15.66    2.91   -0.30   0.000   0.200   0.000    0.00
   4.050   15.86    4.73   -0.93   0.000   0.200   0.000    0.00
   4.100   15.69    5.15   -0.76   0.000   0.200   0.000    0.00
   4.150   16.00    5.20   -0.98   0.000   0.200   0.000    0.00
   4.200   15.74    4.09   -1.03   0.000   0.200   0.000    0.00
   4.250   15.67    5.73   -0.82   0.000   0.200   0.000    0.00
   4.300   15.51    8.05   -0.58   0.000   0.200   0.000    0.00
   4.350   15.91    6.91   -0.39   0.000   0.200   0.000    0.00
   4.400   15.91    6.93    0.27   0.000   0.200   0.000    0.00
   4.450   15.22    8.55    0.97   0.000   0.200   0.000    0.00
   4.500   14.72    7.31    1.18   0.000   0.200   0.000    0.00
   4.550   14.56    5.51    1.43   0.000   0.200   0.000    0.00
   4.600   14.57    5.51    1.72   0.000   0.200   0.000    0.00
   4.650   14.78    5.47    0.84   0.000   0.200   0.000    0.00
   4.700   14.54    6.01    1.02   0.000   0.200   0.000    0.00
   4.750   13.93    8.28    1.20   0.000   0.200   0.000    0.00
   4.800   14.32   10.40    1.15   0.000   0.200   0.000    0.00
   4.850   13.91   10.71    1.00   0.000   0.200   0.000    0.00
   4.900   13.94    7.30    0.60   0.000   0.200   0.000    0.00
   4.950   13.83    6.74    0.61   0.000   0.200   0.000    0.00
   5.000   13.65    6.92    0.98   0.000   0.200   0.000    0.00
   5.050   14.37    4.92    0.99   0.000   0.200   0.000    0.00
   5.100   14.19    2.17    0.71   0.000   0.200   0.000    0.00
   5.150   14.25    1.26    0.60   0.000   0.200   0.000    0.00
   5.200   14.89   -2.65    0.09   0.000   0.200   0.000    0.00
   5.250   14.86   -1.60    0.87   0.000   0.200   0.000    0.00
   5.300   14.47   -0.10    0.80   0.000   0.200   0.000    0.00
   5.350   15.12   -1.08    0.77   0.000   0.200   0.000    0.00
   5.400   14.26   -0.70    1.13   0.000   0.200   0.000    0.00
   5.450   14.06   -1.69    1.64   0.000   0.200   0.000    0.00
   5.500   14.42   -1.62    1.57   0.000   0.200   0.000    0.00
   5.550   14.67   -2.66    0.99   0.000   0.200   0.000    0.00
   5.600   14.91   -1.72    0.89   0.000   0.200   0.000    0.00
   5.650   15.36    0.98    0.93   0.000   0.200   0.000    0.00
   5.700   15.03    4.57    0.55   0.000   0.200   0.000    0.00
   5.750   15.30    3.42    0.27   0.000   0.200   0.000    0.00
   5.800   14.85    1.80    0.58   0.000   0.200   0.000    0.00
   5.850   14.70    3.64    0.67   0.000   0.200   0.000    0.00
   5.900   15.15    7.25    0.50   0.000   0.200   0.000    0.00
   5.950   14.60    7.26    0.69   0.000   0.200   0.000    0.00
   6.000   14.57    5.61    1.21   0.000   0.200   0.000    0.00
   6.050   14.53    5.59    0.89   0.000   0.200   0.000    0.00
   6.100   14.62    6.50    0.45   0.000   0.200   0.000    0.00
   6.150   14.64    6.80    0.32   0.000   0.200   0.000    0.00
   6.200   14.33    6.80    0.03   0.000   0.200   0.000    0.00
   6.250   14.29    6.14    0.11   0.000   0.200   0.000    0.00
   6.300   14.62    5.35   -0.32   0.000   0.200   0.000    0.00
   6.350   13.72    4.44   -0.25   0.000   0.200   0.000    0.00
   6.400   13.93    2.63   -0.30   0.000   0.200   0.000    0.00
   6.450   14.11    2.30    0.02   0.000   0.200   0.000    0.00
   6.500   13.66    4.39   -0.32   0.000   0.200   0.000    0.00
   6.550   13.44    6.07   -0.56   0.000   0.200   0.000    0.00
   6.600   13.95    8.39    0.03   0.000   0.200   0.000    0.00
   6.650   14.64    6.78    0.18   0.000   0.200   0.000    0.00
   6.700   14.60    8.07    0.22   0.000   0.200   0.000    0.00
   6.750   15.00    9.56    0.05   0.000   0.200   0.000    0.00
   6.800   14.71   10.35    0.14   0.000   0.200   0.000    0.00
   6.850   14.99   10.53    0.47   0.000   0.200   0.000    0.00
   6.900   14.96   10.22    0.54   0.000   0.200   0.000    0.00
   6.950   14.63    8.65    0.51   0.000   0.200   0.000    0.00
   7.000   14.58    7.78    0.19   0.000   0.200   0.000    0.00
   7.050   14.40    8.49    0.09   0.000   0.200   0.000    0.00
   7.100   14.54    8.46    0.53   0.000   0.200   0.000    0.00
   7.150   14.24    8.48    0.13   0.000   0.200   0.000    0.00
   7.200   14.21    7.81   -0.23   0.000   0.200   0.000    0.00
   7.250   14.37    9.85   -0.52   0.000   0.200   0.000    0.00
   7.300   14.07   10.90   -0.82   0.000   0.200   0.000    0.00
   7.350   13.86   11.57   -1.28   0.000   0.200   0.000    0.00
   7.400   13.87   11.43   -1.02   0.000   0.200   0.000    0.00
   7.450   14.47    7.84   -0.73   0.000   0.200   0.000    0.00
   7.500   14.88    6.44   -0.45   0.000   0.200   0.000    0.00
   7.550   14.47    4.76   -0.71   0.000   0.200   0.000    0.00
   7.600   14.36    5.41    0.04   0.000   0.200   0.000    0.00
   7.650   14.34    7.00   -0.11   0.000   0.200   0.000    0.00
   7.700   13.67    8.89   -0.45   0.000   0.200   0.000    0.00
   7.750   13.72    9.29   -0.08   0.000   0.200   0.000    0.00
   7.800   13.62    8.23    0.05   0.000   0.200   0.000    0.00
   7.850   14.02    6.36    0.07   0.000   0.200   0.000    0.00
   7.900   13.85    8.38   -0.14   0.000   0.200   0.000    0.00
   7.950   13.73    7.65   -0.51   0.000   0.200   0.000    0.00
   8.000   13.94    6.52   -0.84   0.000   0.200   0.000    0.00
   8.050   13.74    5.00   -0.55   0.000   0.200   0.000    0.00
   8.100   14.15    5.81   -0.47   0.000   0.200   0.000    0.00
   8.150   14.29    5.10   -0.16   0.000   0.200   0.000    0.00
   8.200   14.42    4.93    0.27   0.000   0.200   0.000    0.00
   8.250   14.31    5.48    0.06   0.000   0.200   0.000    0.00
   8.300   14.06    4.18    0.00   0.000   0.200   0.000    0.00
   8.350   14.13    3.85    0.21   0.000   0.200   0.000    0.00
   8.400   14.02    5.46    0.00   0.000   0.200   0.000    0.00
   8.450   14.12    3.15    0.08   0.000   0.200   0.000    0.00
   8.500   13.86    3.36   -0.04   0.000   0.200   0.000    0.00
   8.550   13.94    3.91    0.18   0.000   0.200   0.000    0.00
   8.600   14.35    5.61    0.24   0.000   0.200   0.000    0.00
   8.650   14.67    6.28    0.10   0.000   0.200   0.000    0.00
   8.700   14.61    8.07    0.67   0.000   0.200   0.000    0.00
   8.750   14.42    5.52    0.90   0.000   0.200   0.000    0.00
   8.800   14.38    2.01    1.57   0.000   0.200   0.000    0.00
   8.850   14.38    2.37    1.34   0.000   0.200   0.000    0.00
   8.900   14.01    3.01    0.72   0.000   0.200   0.000    0.00
   8.950   13.88    5.62    0.33   0.000   0.200   0.000    0.00
   9.000   13.78    6.87    0.79   0.000   0.200   0.000    0.00
   9.050   13.57    4.54    0.99   0.000   0.200   0.000    0.00
   9.100   13.36    4.01    1.36   0.000   0.200   0.000    0.00
   9.150   13.45    6.85    0.28   0.000   0.200   0.000    0.00
   9.200   13.42    7.66    1.03   0.000   0.200   0.000    0.00
   9.250   13.46    8.41    1.06   0.000   0.200   0.000    0.00
   9.300   13.61    8.85    0.81   0.000   0.200   0.000    0.00
   9.350   13.33    4.41    0.73   0.000   0.200   0.000    0.00
   9.400   13.45    2.68    1.00   0.000   0.200   0.000    0.00
   9.450   13.69    5.17    0.81   0.000   0.200   0.000    0.00
   9.500   13.60    2.82    0.17   0.000   0.200   0.000    0.00
   9.550   13.34    1.43   -0.60   0.000   0.200   0.000    0.00
   9.600   13.28    4.30   -1.14   0.000   0.200   0.000    0.00
   9.650   12.95    4.09   -0.23   0.000   0.200   0.000    0.00
   9.700   13.17    2.65    0.03   0.000   0.200   0.000    0.00
   9.750   13.21    2.62    0.00   0.000   0.200   0.000    0.00
   9.800   13.98    0.23   -0.10   0.000   0.200   0.000    0.00
   9.850   13.12    0.76    0.30   0.000   0.200   0.000    0.00
   9.900   12.87    1.66    0.01   0.000   0.200   0.000    0.00
   9.950   13.02    1.11   -0.10   0.000   0.200   0.000    0.00
  10.000   13.31    0.43   -0.46   0.000   0.200   0.000    0.00
  10.050   13.34    2.11   -0.28   0.000   0.200   0.000    0.00
  10.100   13.55    4.33    0.20   0.000   0.200   0.000    0.00
  10.150   13.29    6.66    0.08   0.000   0.200   0.000    0.00
  10.200   13.54    7.33   -0.08   0.000   0.200   0.000    0.00
  10.250   14.05    8.88   -0.20   0.000   0.200   0.000    0.00
  10.300   13.94    8.13   -0.37   0.000   0.200   0.000    0.00
  10.350   14.61    9.86   -0.22   0.000   0.200   0.000    0.00
  10.400   14.45   10.06    0.21   0.000   0.200   0.000    0.00
  10.450   15.05    8.46    0.20   0.000   0.200   0.000    0.00
  10.500   14.61    7.71   -0.22   0.000   0.200   0.000    0.00
  10.550   14.83    7.80    0.20   0.000   0.200   0.000    0.00
  10.600   15.10    6.98    0.27   0.000   0.200   0.000    0.00
  10.650   14.52    6.75    0.36   0.000   0.200   0.000    0.00
  10.700   14.36    6.53   -0.25   0.000   0.200   0.000    0.00
  10.750   14.35    7.13   -0.01   0.000   0.200   0.000    0.00
  10.800   13.40    8.75   -0.01   0.000   0.200   0.000    0.00
  10.850   13.48   10.16   -0.02   0.000   0.200   0.000    0.00
  10.900   13.70    7.70    0.13   0.000   0.200   0.000    0.00
  10.950   13.57    7.80    0.42   0.000   0.200   0.000    0.00
  11.000   13.96    7.71    0.15   0.000   0.200   0.000    0.00
  11.050   14.24    9.03    0.82   0.000   0.200   0.000    0.00
  11.100   13.73    9.43    0.69   0.000   0.200   0.000    0.00
  11.150   13.85    9.34    0.70   0.000   0.200   0.000    0.00
  11.200   13.87    9.72    0.97   0.000   0.200   0.000    0.00
  11.250   13.82    8.65    0.99   0.000   0.200   0.000    0.00
  11.300   14.10    9.63    1.32   0.000   0.200   0.000    0.00
  11.350   13.53    8.95    1.36   0.000   0.200   0.000    0.00
  11.400   13.45    9.94    1.67   0.000   0.200   0.000    0.00
  11.450   13.29   12.53    1.46   0.000   0.200   0.000    0.00
  11.500   13.39   12.30    1.21   0.000   0.200   0.000    0.00
  11.550   13.27   11.91    0.93   0.000   0.200   0.000    0.00
  11.600   13.73   11.21    1.49   0.000   0.200   0.000    0.00
  11.650   13.62    9.83    1.95   0.000   0.200   0.000    0.00
  11.700   13.60    8.55    1.83   0.000   0.200   0.000    0.00
  11.750   13.74    9.80    1.72   0.000   0.200   0.000    0.00
  11.800   13.44    8.10    2.15   0.000   0.200   0.000    0.00
  11.850   13.27    7.67    2.58   0.000   0.200   0.000    0.00
  11.900   13.92    6.31    2.26   0.000   0.200   0.000    0.00
  11.950   13.67    5.00    2.27   0.000   0.200   0.000    0.00
  12.000   13.85    4.25    2.05   0.000   0.200   0.000    0.00
  12.050   14.10    3.67    1.72   0.000   0.200   0.000    0.00
  12.100   14.33    4.16    1.49   0.000   0.200   0.000    0.00
  12.150   14.17    6.91    1.54   0.000   0.200   0.000    0.00
  12.200   13.43    6.20    1.32   0.000   0.200   0.000    0.00
  12.250   13.02    4.10    0.86   0.000   0.200   0.000    0.00
  12.300   13.12    2.86    0.40   0.000   0.200   0.000    0.00
  12.350   12.71   -0.03    0.74   0.000   0.200   0.000    0.00
  12.400   12.04   -0.65    0.49   0.000   0.200   0.000    0.00
  12.450   11.66    1.48    0.69   0.000   0.200   0.000    0.00
  12.500   11.92    0.37    0.29   0.000   0.200   0.000    0.00
  12.550   11.68   -2.11    0.07   0.000   0.200   0.000    0.00
  12.600   12.06   -2.78   -0.07   0.000   0.200   0.000    0.00
  12.650   12.44   -1.39   -0.39   0.000   0.200   0.000    0.00
  12.700   12.15   -2.48   -0.58   0.000   0.200   0.000    0.00
  12.750   12.08   -1.13   -1.22   0.000   0.200   0.000    0.00
  12.800   12.36    0.22   -1.17   0.000   0.200   0.000    0.00
  12.850   12.98    1.25   -0.79   0.000   0.200   0.000    0.00
  12.900   12.98    0.91   -0.14   0.000   0.200   0.000    0.00
  12.950   12.87    0.86   -0.36   0.000   0.200   0.000    0.00
  13.000   12.15    1.88   -0.68   0.000   0.200   0.000    0.00
  13.050   12.56    3.59    0.12   0.000   0.200   0.000    0.00
  13.100   13.14    6.34    0.61   0.000   0.200   0.000    0.00
  13.150   12.76    6.60   -0.10   0.000   0.200   0.000    0.00
  13.200   12.56    5.57    0.03   0.000   0.200   0.000    0.00
  13.250   12.81    4.02   -0.65   0.000   0.200   0.000    0.00
  13.300   12.75    2.44   -0.83   0.000   0.200   0.000    0.00
  13.350   12.53    2.45   -0.33   0.000   0.200   0.000    0.00
  13.400   12.37    3.45   -1.06   0.000   0.200   0.000    0.00
  13.450   12.85    4.10   -1.31   0.000   0.200   0.000    0.00
  13.500   12.80    4.28   -1.24   0.000   0.200   0.000    0.00
  13.550   13.11    3.61   -1.35   0.000   0.200   0.000    0.00
  13.600   13.21    3.47   -0.94   0.000   0.200   0.000    0.00
  13.650   13.36    3.60   -0.23   0.000   0.200   0.000    0.00
  13.700   12.80    4.08   -0.15   0.000   0.200   0.000    0.00
  13.750   12.58    4.66   -0.23   0.000   0.200   0.000    0.00
  13.800   12.62    5.10   -0.64   0.000   0.200   0.000    0.00
  13.850   12.81    6.88   -0.30   0.000   0.200   0.000    0.00
  13.900   12.61    6.39   -0.65   0.000   0.200   0.000    0.00
  13.950   12.28    6.30   -0.39   0.000   0.200   0.000    0.00
  14.000   12.54    8.22   -0.55   0.000   0.200   0.000    0.00
  14.050   13.07    8.06    0.22   0.000   0.200   0.000    0.00
  14.100   13.42    8.13    0.06   0.000   0.200   0.000    0.00
  14.150   13.22    7.25   -0.13   0.000   0.200   0.000    0.00
  14.200   13.17    6.28   -0.44   0.000   0.200   0.000    0.00
  14.250   13.37    3.21   -0.56   0.000   0.200   0.000    0.00
  14.300   13.60    6.62   -0.85   0.000   0.200   0.000    0.00
  14.350   13.33   10.43   -0.41   0.000   0.200   0.000    0.00
  14.400   13.34    7.53   -0.27   0.000   0.200   0.000    0.00
  14.450   13.45    5.34   -0.06   0.000   0.200   0.000    0.00
  14.500   13.48    6.20   -0.06   0.000   0.200   0.000    0.00
  14.550   13.32    9.79   -0.01   0.000   0.200   0.000    0.00
  14.600   14.10   12.58   -0.06   0.000   0.200   0.000    0.00
  14.650   13.94    7.78   -0.62   0.000   0.200   0.000    0.00
  14.700   13.75    3.97   -0.49   0.000   0.200   0.000    0.00
  14.750   14.01    5.17   -0.21   0.000   0.200   0.000    0.00
  14.800   14.25    3.04   -0.59   0.000   0.200   0.000    0.00
  14.850   14.45    3.74   -0.79   0.000   0.200   0.000    0.00
  14.900   14.65    3.86    0.04   0.000   0.200   0.000    0.00
  14.950   14.81    1.69   -0.26   0.000   0.200   0.000    0.00
  15.000   15.03    5.11   -0.62   0.000   0.200   0.000    0.00
  15.050   15.36    4.92   -0.67   0.000   0.200   0.000    0.00
  15.100   15.43    6.47   -0.05   0.000   0.200   0.000    0.00
  15.150   15.13    6.26    0.06   0.000   0.200   0.000    0.00
  15.200   14.83    4.81   -0.26   0.000   0.200   0.000    0.00
  15.250   14.93    4.47   -0.86   0.000   0.200   0.000    0.00
  15.300   15.28    5.37   -0.99   0.000   0.200   0.000    0.00
  15.350   15.14    3.78   -1.24   0.000   0.200   0.000    0.00
  15.400   14.78    1.33   -1.86   0.000   0.200   0.000    0.00
  15.450   14.30    1.93   -1.56   0.000   0.200   0.000    0.00
  15.500   14.35    1.09   -1.96   0.000   0.200   0.000    0.00
  15.550   14.72    3.84   -1.99   0.000   0.200   0.000    0.00
  15.600   14.26    5.04   -1.40   0.000   0.200   0.000    0.00
  15.650   14.64    2.14   -0.80   0.000   0.200   0.000    0.00
  15.700   14.64    1.64   -0.35   0.000   0.200   0.000    0.00
  15.750   14.02    1.36   -0.40   0.000   0.200   0.000    0.00
  15.800   13.77    2.18   -0.81   0.000   0.200   0.000    0.00
  15.850   13.91    1.89   -0.86   0.000   0.200   0.000    0.00
  15.900   13.64    2.66   -0.71   0.000   0.200   0.000    0.00
  15.950   13.55    1.67    0.12   0.000   0.200   0.000    0.00
  16.000   13.30    2.37    0.14   0.000   0.200   0.000    0.00
  16.050   13.34    1.95   -0.05   0.000   0.200   0.000    0.00
  16.100   14.09    0.76   -0.37   0.000   0.200   0.000    0.00
  16.150   14.04    0.54   -0.19   0.000   0.200   0.000    0.00
  16.200   14.09    1.74    0.10   0.000   0.200   0.000    0.00
  16.250   13.85    1.79    0.03   0.000   0.200   0.000    0.00
  16.300   14.19    2.03    0.53   0.000   0.200   0.000    0.00
  16.350   14.09    3.35    0.26   0.000   0.200   0.000    0.00
  16.400   13.99    3.34   -0.12   0.000   0.200   0.000    0.00
  16.450   14.01    4.45    0.05   0.000   0.200   0.000    0.00
  16.500   14.36    5.84    0.29   0.000   0.200   0.000    0.00
  16.550   14.05    4.90    0.67   0.000   0.200   0.000    0.00
  16.600   13.57    5.59    0.46   0.000   0.200   0.000    0.00
  16.650   13.49    4.53   -0.44   0.000   0.200   0.000    0.00
  16.700   13.22    4.64   -1.00   0.000   0.200   0.000    0.00
  16.750   13.24    3.32   -0.89   0.000   0.200   0.000    0.00
  16.800   14.19    4.31   -0.48   0.000   0.200   0.000    0.00
  16.850   13.42    4.42   -0.65   0.000   0.200   0.000    0.00
  16.900   13.40    0.67   -0.90   0.000   0.200   0.000    0.00
  16.950   13.74   -2.24   -0.78   0.000   0.200   0.000    0.00
  17.000   13.59   -1.14   -0.25   0.000   0.200   0.000    0.00
  17.050   13.49    2.13   -0.44   0.000   0.200   0.000    0.00
  17.100   13.26    1.22   -1.07   0.000   0.200   0.000    0.00
  17.150   13.28    1.63   -0.70   0.000   0.200   0.000    0.00
  17.200   13.74    1.64   -0.40   0.000   0.200   0.000    0.00
  17.250   14.06    2.68   -0.14   0.000   0.200   0.000    0.00
  17.300   14.37   -0.91   -0.76   0.000   0.200   0.000    0.00
  17.350   14.00    0.89   -0.87   0.000   0.200   0.000    0.00
  17.400   13.76    1.39    0.09   0.000   0.200   0.000    0.00
  17.450   13.84    0.96    0.05   0.000   0.200   0.000    0.00
  17.500   13.48    4.40   -0.34   0.000   0.200   0.000    0.00
  17.550   13.95    6.00   -0.34   0.000   0.200   0.000    0.00
  17.600   14.62    3.12   -0.70   0.000   0.200   0.000    0.00
  17.650   14.96    4.19   -0.71   0.000   0.200   0.000    0.00
  17.700   15.23    2.76   -0.49   0.000   0.200   0.000    0.00
  17.750   14.88    1.69   -0.88   0.000   0.200   0.000    0.00
  17.800   14.85    4.33   -1.06   0.000   0.200   0.000    0.00
  17.850   14.86    5.42   -0.53   0.000   0.200   0.000    0.00
  17.900   14.58    5.59   -0.76   0.000   0.200   0.000    0.00
  17.950   14.45    5.52   -0.38   0.000   0.200   0.000    0.00
  18.000   14.64    4.94   -0.59   0.000   0.200   0.000    0.00
  18.050   13.91    5.01   -0.86   0.000   0.200   0.000    0.00
  18.100   13.47    4.90   -0.32   0.000   0.200   0.000    0.00
  18.150   13.40    4.67   -0.28   0.000   0.200   0.000    0.00
  18.200   12.91    4.20   -0.37   0.000   0.200   0.000    0.00
  18.250   12.79    3.71   -0.54   0.000   0.200   0.000    0.00
  18.300   12.81    4.35   -0.43   0.000   0.200   0.000    0.00
  18.350   12.99    7.42   -0.44   0.000   0.200   0.000    0.00
  18.400   12.98    5.59   -0.08   0.000   0.200   0.000    0.00
  18.450   13.28    6.30    0.05   0.000   0.200   0.000    0.00
  18.500   13.12    1.90    0.14   0.000   0.200   0.000    0.00
  18.550   13.32   -0.25    0.16   0.000   0.200   0.000    0.00
  18.600   13.31    1.79    0.07   0.000   0.200   0.000    0.00
  18.650   13.24    0.56    0.18   0.000   0.200   0.000    0.00
  18.700   13.32   -0.69   -0.29   0.000   0.200   0.000    0.00
  18.750   12.82    1.57    0.11   0.000   0.200   0.000    0.00
  18.800   12.64   -2.05    0.54   0.000   0.200   0.000    0.00
  18.850   12.91   -1.40    0.00   0.000   0.200   0.000    0.00
  18.900   13.28    0.47   -0.35   0.000   0.200   0.000    0.00
  18.950   12.78    3.64    0.01   0.000   0.200   0.000    0.00
  19.000   12.63    5.39    0.01   0.000   0.200   0.000    0.00
  19.050   12.28    2.90   -0.11   0.000   0.200   0.000    0.00
  19.100   12.78    3.32   -0.45   0.000   0.200   0.000    0.00
  19.150   13.11    4.86   -0.42   0.000   0.200   0.000    0.00
  19.200   12.73    4.57   -0.24   0.000   0.200   0.000    0.00
  19.250   12.50    3.93    0.17   0.000   0.200   0.000    0.00
  19.300   12.69    5.88   -0.12   0.000   0.200   0.000    0.00
  19.350   12.38    3.39   -0.81   0.000   0.200   0.000    0.00
  19.400   12.05    0.51   -0.38   0.000   0.200   0.000    0.00
  19.450   11.81    1.76   -0.14   0.000   0.200   0.000    0.00
  19.500   11.33    1.40   -0.44   0.000   0.200   0.000    0.00
  19.550   11.48    0.20   -0.65   0.000   0.200   0.000    0.00
  19.600   11.98    1.66   -0.99   0.000   0.200   0.000    0.00
  19.650   12.67    3.29   -1.63   0.000   0.200   0.000    0.00
  19.700   12.64    6.42   -1.08   0.000   0.200   0.000    0.00
  19.750   13.14    4.17   -0.83   0.000   0.200   0.000    0.00
  19.800   13.44    3.84   -0.53   0.000   0.200   0.000    0.00
  19.850   13.29    7.06   -0.07   0.000   0.200   0.000    0.00
  19.900   13.66    6.75    0.12   0.000   0.200   0.000    0.00
  19.950   13.70    8.37    0.04   0.000   0.200   0.000    0.00
  20.000   13.98    6.38    0.05   0.000   0.200   0.000    0.00
  20.050   13.42    2.35   -0.55   0.000   0.200   0.000    0.00
  20.100   13.52    2.50   -0.33   0.000   0.200   0.000    0.00
  20.150   13.87    0.95   -0.35   0.000   0.200   0.000    0.00
  20.200   14.14   -0.15   -0.98   0.000   0.200   0.000    0.00
  20.250   14.10    0.56   -1.01   0.000   0.200   0.000    0.00
  20.300   14.45    2.48   -1.16   0.000   0.200   0.000    0.00
  20.350   13.90    3.80   -0.77   0.000   0.200   0.000    0.00
  20.400   14.46    3.45   -0.64   0.000   0.200   0.000    0.00
  20.450   14.38    3.94   -0.72   0.000   0.200   0.000    0.00
  20.500   13.81    5.50   -0.94   0.000   0.200   0.000    0.00
  20.550   13.88    3.87   -0.75   0.000   0.200   0.000    0.00
  20.600   13.69    4.63   -0.93   0.000   0.200   0.000    0.00
  20.650   14.22    5.87   -1.24   0.000   0.200   0.000    0.00
  20.700   14.43    3.89   -1.57   0.000   0.200   0.000    0.00
  20.750   14.47    0.98   -1.83   0.000   0.200   0.000    0.00
  20.800   14.26    1.13   -1.62   0.000   0.200   0.000    0.00
  20.850   13.47    2.64   -1.60   0.000   0.200   0.000    0.00
  20.900   13.75    0.93   -2.44   0.000   0.200   0.000    0.00
  20.950   13.72   -1.36   -2.42   0.000   0.200   0.000    0.00
  21.000   14.06   -1.39   -1.94   0.000   0.200   0.000    0.00
  21.050   14.23   -1.36   -2.15   0.000   0.200   0.000    0.00
  21.100   14.17   -3.66   -1.49   0.000   0.200   0.000    0.00
  21.150   15.13   -3.49   -2.09   0.000   0.200   0.000    0.00
  21.200   14.92   -3.35   -1.51   0.000   0.200   0.000    0.00
  21.250   14.84   -3.69   -0.87   0.000   0.200   0.000    0.00
  21.300   14.90   -4.31   -1.25   0.000   0.200   0.000    0.00
  21.350   14.60   -3.88   -0.43   0.000   0.200   0.000    0.00
  21.400   14.60   -1.87   -0.44   0.000   0.200   0.000    0.00
  21.450   14.56   -1.49   -0.37   0.000   0.200   0.000    0.00
  21.500   13.59    1.32   -0.51   0.000   0.200   0.000    0.00
  21.550   13.25    1.01   -0.40   0.000   0.200   0.000    0.00
  21.600   13.97   -4.03   -0.77   0.000   0.200   0.000    0.00
  21.650   14.10   -5.86   -0.98   0.000   0.200   0.000    0.00
  21.700   13.65   -2.79   -1.15   0.000   0.200   0.000    0.00
  21.750   13.54   -0.19   -1.34   0.000   0.200   0.000    0.00
  21.800   13.71   -1.35   -0.59   0.000   0.200   0.000    0.00
  21.850   13.73   -1.38   -0.24   0.000   0.200   0.000    0.00
  21.900   13.61   -1.92   -0.29   0.000   0.200   0.000    0.00
  21.950   13.97    0.92    0.04   0.000   0.200   0.000    0.00
  22.000   14.24    1.94    0.51   0.000   0.200   0.000    0.00
  22.050   14.16    1.73   -0.44   0.000   0.200   0.000    0.00
  22.100   14.33    3.54    0.48   0.000   0.200   0.000    0.00
  22.150   15.24    3.62    0.90   0.000   0.200   0.000    0.00
  22.200   15.23    6.76    1.30   0.000   0.200   0.000    0.00
  22.250   15.31    4.55    0.70   0.000   0.200   0.000    0.00
  22.300   15.03    4.00    0.36   0.000   0.200   0.000    0.00
  22.350   15.06    4.70    0.50   0.000   0.200   0.000    0.00