! This hub-height wind-speed file was generated by TurbSim (v1.06.00, 21-Sep-2012) on 03-Feb-2018 at 23:33:12.
!
! The requested statistics for this data were:
!    Mean Total Wind Speed =   19.000 m/s
!    Turbulence Intensity  =   14.626%
!
!   Time  HorSpd  WndDir  VerSpd  HorShr  VerShr  LnVShr  GstSpd
!  (sec)   (m/s)   (deg)   (m/s)     (-)     (-)     (-)   (m/s)
   0.000   20.99  -13.72    0.17   0.000   0.200   0.000    0.00
   0.050   21.14  -15.02    0.00   0.000   0.200   0.000    0.00
   0.100   22.13  -15.52   -0.24   0.000   0.200   0.000    0.00
   0.150   22.19  -13.54   -0.07   0.000   0.200   0.000    0.00
   0.200   22.06  -12.68    0.30   0.000   0.200   0.000    0.00
   0.250   22.28  -14.39    0.47   0.000   0.200   0.000    0.00
   0.300   21.85  -14.15   -0.32   0.000   0.200   0.000    0.00
   0.350   21.96  -14.56    0.33   0.000   0.200   0.000    0.00
   0.400   22.24  -11.71   -0.26   0.000   0.200   0.000    0.00
   0.450   23.10   -9.74    0.34   0.000   0.200   0.000    0.00
   0.500   22.95  -10.27    1.46   0.000   0.200   0.000    0.00
   0.550   22.53   -8.62    1.72   0.000   0.200   0.000    0.00
   0.600   22.19  -11.05    1.24   0.000   0.200   0.000    0.00
   0.650   22.80  -10.74    0.20   0.000   0.200   0.000    0.00
   0.700   22.19   -8.36   -0.07   0.000   0.200   0.000    0.00
   0.750   21.68   -8.64    0.15   0.000   0.200   0.000    0.00
   0.800   21.01   -7.18   -0.69   0.000   0.200   0.000    0.00
   0.850   20.70   -5.78   -1.10   0.000   0.200   0.000    0.00
   0.900   20.69   -5.71   -1.40   0.000   0.200   0.000    0.00
   0.950   20.81   -7.26   -1.18   0.000   0.200   0.000    0.00
   1.000   21.21   -5.26   -0.86   0.000   0.200   0.000    0.00
   1.050   20.25   -6.37   -1.27   0.000   0.200   0.000    0.00
   1.100   20.26   -5.48   -1.44   0.000   0.200   0.000    0.00
   1.150   18.99   -6.21   -1.49   0.000   0.200   0.000    0.00
   1.200   18.72   -7.02   -0.85   0.000   0.200   0.000    0.00
   1.250   18.91   -6.54   -0.13   0.000   0.200   0.000    0.00
   1.300   19.14   -8.12   -0.59   0.000   0.200   0.000    0.00
   1.350   19.79   -8.17   -0.02   0.000   0.200   0.000    0.00
   1.400   19.94   -7.55    0.09   0.000   0.200   0.000    0.00
   1.450   19.64   -8.40   -0.74   0.000   0.200   0.000    0.00
   1.500   19.13   -9.80   -0.58   0.000   0.200   0.000    0.00
   1.550   19.40   -9.87    0.41   0.000   0.200   0.000    0.00
   1.600   18.99  -10.49    0.58   0.000   0.200   0.000    0.00
   1.650   19.26   -8.28    1.14   0.000   0.200   0.000    0.00
   1.700   18.62   -8.56    1.31   0.000   0.200   0.000    0.00
   1.750   18.11   -9.72    1.25   0.000   0.200   0.000    0.00
   1.800   17.91  -12.06    1.79   0.000   0.200   0.000    0.00
   1.850   17.98  -13.32    1.79   0.000   0.200   0.000    0.00
   1.900   18.15  -13.22    0.84   0.000   0.200   0.000    0.00
   1.950   18.92  -13.50    0.96   0.000   0.200   0.000    0.00
   2.000   18.87  -12.73   -0.11   0.000   0.200   0.000    0.00
   2.050   18.36  -10.52   -0.14   0.000   0.200   0.000    0.00
   2.100   18.87  -10.39    0.17   0.000   0.200   0.000    0.00
   2.150   19.64  -11.92   -0.22   0.000   0.200   0.000    0.00
   2.200   19.29   -9.27   -0.59   0.000   0.200   0.000    0.00
   2.250   18.78   -9.73   -1.80   0.000   0.200   0.000    0.00
   2.300   18.73  -12.85   -1.89   0.000   0.200   0.000    0.00
   2.350   18.66  -12.28   -1.28   0.000   0.200   0.000    0.00
   2.400   18.26  -10.72   -1.36   0.000   0.200   0.000    0.00
   2.450   18.54  -10.46   -2.16   0.000   0.200   0.000    0.00
   2.500   17.85   -7.59   -2.63   0.000   0.200   0.000    0.00
   2.550   18.09  -11.21   -3.06   0.000   0.200   0.000    0.00
   2.600   18.45  -10.46   -2.40   0.000   0.200   0.000    0.00
   2.650   17.78  -11.29   -1.89   0.000   0.200   0.000    0.00
   2.700   18.62   -8.86   -0.28   0.000   0.200   0.000    0.00
   2.750   18.78   -5.33   -0.25   0.000   0.200   0.000    0.00
   2.800   19.17   -3.15   -0.74   0.000   0.200   0.000    0.00
   2.850   19.52   -5.55   -0.56   0.000   0.200   0.000    0.00
   2.900   20.17   -4.89   -1.05   0.000   0.200   0.000    0.00
   2.950   20.33   -6.05    0.10   0.000   0.200   0.000    0.00
   3.000   20.84   -7.09   -0.94   0.000   0.200   0.000    0.00
   3.050   20.51   -5.23   -1.02   0.000   0.200   0.000    0.00
   3.100   20.69   -3.50    0.08   0.000   0.200   0.000    0.00
   3.150   20.46   -5.54   -0.05   0.000   0.200   0.000    0.00
   3.200   20.74   -5.65    0.29   0.000   0.200   0.000    0.00
   3.250   20.66   -2.82    0.54   0.000   0.200   0.000    0.00
   3.300   19.97   -2.96   -0.13   0.000   0.200   0.000    0.00
   3.350   19.85   -4.52    1.33   0.000   0.200   0.000    0.00
   3.400   20.54   -5.65    0.92   0.000   0.200   0.000    0.00
   3.450   20.80   -4.44   -0.09   0.000   0.200   0.000    0.00
   3.500   20.88   -4.35    0.61   0.000   0.200   0.000    0.00
   3.550   20.54   -5.26    0.29   0.000   0.200   0.000    0.00
   3.600   20.39   -5.93    0.76   0.000   0.200   0.000    0.00
   3.650   20.12   -7.92    1.27   0.000   0.200   0.000    0.00
   3.700   19.00   -7.96    0.42   0.000   0.200   0.000    0.00
   3.750   19.94   -8.90    1.07   0.000   0.200   0.000    0.00
   3.800   20.97   -9.06    0.82   0.000   0.200   0.000    0.00
   3.850   20.94   -7.18    0.38   0.000   0.200   0.000    0.00
   3.900   21.05   -7.93    0.20   0.000   0.200   0.000    0.00
   3.950   21.65   -8.33    0.64   0.000   0.200   0.000    0.00
   4.000   20.95   -8.94    0.43   0.000   0.200   0.000    0.00
   4.050   20.25   -9.20    0.88   0.000   0.200   0.000    0.00
   4.100   21.01  -12.84    2.56   0.000   0.200   0.000    0.00
   4.150   21.40  -15.92    2.12   0.000   0.200   0.000    0.00
   4.200   21.77  -17.18    1.51   0.000   0.200   0.000    0.00
   4.250   22.37  -17.25    1.79   0.000   0.200   0.000    0.00
   4.300   23.17  -17.77    1.31   0.000   0.200   0.000    0.00
   4.350   23.90  -15.83    1.38   0.000   0.200   0.000    0.00
   4.400   23.61  -15.81    1.79   0.000   0.200   0.000    0.00
   4.450   22.62  -15.46    1.61   0.000   0.200   0.000    0.00
   4.500   22.50  -12.18    1.62   0.000   0.200   0.000    0.00
   4.550   22.27   -9.45    1.19   0.000   0.200   0.000    0.00
   4.600   22.16   -8.59   -0.10   0.000   0.200   0.000    0.00
   4.650   23.35  -10.00   -0.54   0.000   0.200   0.000    0.00
   4.700   23.37  -10.89    0.04   0.000   0.200   0.000    0.00
   4.750   23.27  -11.76   -0.08   0.000   0.200   0.000    0.00
   4.800   22.54  -10.16   -0.37   0.000   0.200   0.000    0.00
   4.850   21.87   -7.71    0.51   0.000   0.200   0.000    0.00
   4.900   22.60  -10.21    0.84   0.000   0.200   0.000    0.00
   4.950   22.44  -11.57    0.44   0.000   0.200   0.000    0.00
   5.000   21.56   -9.07    1.03   0.000   0.200   0.000    0.00
   5.050   21.32   -9.88    1.28   0.000   0.200   0.000    0.00
   5.100   21.70   -9.60    1.17   0.000   0.200   0.000    0.00
   5.150   22.15   -8.73    1.38   0.000   0.200   0.000    0.00
   5.200   22.21   -9.97    1.18   0.000   0.200   0.000    0.00
   5.250   23.52  -10.02    1.50   0.000   0.200   0.000    0.00
   5.300   23.71   -9.43    0.33   0.000   0.200   0.000    0.00
   5.350   22.52  -10.70    1.08   0.000   0.200   0.000    0.00
   5.400   22.42  -10.52    0.33   0.000   0.200   0.000    0.00
   5.450   22.60  -10.31    1.24   0.000   0.200   0.000    0.00
   5.500   22.15  -11.13    1.19   0.000   0.200   0.000    0.00
   5.550   21.54  -10.25    1.14   0.000   0.200   0.000    0.00
   5.600   21.48   -9.88    1.90   0.000   0.200   0.000    0.00
   5.650   20.99  -12.76    1.66   0.000   0.200   0.000    0.00
   5.700   20.28  -13.94    1.84   0.000   0.200   0.000    0.00
   5.750   20.10  -14.97    2.04   0.000   0.200   0.000    0.00
   5.800   20.66  -15.48    1.58   0.000   0.200   0.000    0.00
   5.850   21.01  -16.92    1.27   0.000   0.200   0.000    0.00
   5.900   20.49  -15.49    2.22   0.000   0.200   0.000    0.00
   5.950   20.63  -16.17    2.00   0.000   0.200   0.000    0.00
   6.000   20.92  -14.66    1.36   0.000   0.200   0.000    0.00
   6.050   20.68  -14.93    2.33   0.000   0.200   0.000    0.00
   6.100   21.07  -13.42    0.56   0.000   0.200   0.000    0.00
   6.150   21.30  -15.13    0.42   0.000   0.200   0.000    0.00
   6.200   21.21  -14.08    0.82   0.000   0.200   0.000    0.00
   6.250   21.27  -15.25    1.12   0.000   0.200   0.000    0.00
   6.300   20.48  -18.67    1.10   0.000   0.200   0.000    0.00
   6.350   20.21  -17.00    1.14   0.000   0.200   0.000    0.00
   6.400   21.05  -15.29    1.55   0.000   0.200   0.000    0.00
   6.450   21.17  -15.91    1.75   0.000   0.200   0.000    0.00
   6.500   21.49  -17.53    0.32   0.000   0.200   0.000    0.00
   6.550   21.18  -17.22   -0.35   0.000   0.200   0.000    0.00
   6.600   21.18  -16.17    0.33   0.000   0.200   0.000    0.00
   6.650   20.58  -11.98    0.19   0.000   0.200   0.000    0.00
   6.700   19.96   -8.72   -0.69   0.000   0.200   0.000    0.00
   6.750   20.72   -8.86   -1.57   0.000   0.200   0.000    0.00
   6.800   21.49   -7.05   -0.43   0.000   0.200   0.000    0.00
   6.850   22.48   -5.86   -0.92   0.000   0.200   0.000    0.00
   6.900   21.44   -6.37   -1.40   0.000   0.200   0.000    0.00
   6.950   21.29   -7.14   -1.45   0.000   0.200   0.000    0.00
   7.000   20.86   -8.66   -0.48   0.000   0.200   0.000    0.00
   7.050   20.55   -8.88   -0.74   0.000   0.200   0.000    0.00
   7.100   21.18   -7.97   -1.18   0.000   0.200   0.000    0.00
   7.150   20.92   -9.18   -0.59   0.000   0.200   0.000    0.00
   7.200   20.68   -7.01   -0.22   0.000   0.200   0.000    0.00
   7.250   20.80   -7.04   -0.53   0.000   0.200   0.000    0.00
   7.300   19.63   -4.82   -0.83   0.000   0.200   0.000    0.00
   7.350   19.16   -3.77   -1.16   0.000   0.200   0.000    0.00
   7.400   19.56   -3.75   -0.84   0.000   0.200   0.000    0.00
   7.450   20.49   -1.68   -0.66   0.000   0.200   0.000    0.00
   7.500   20.41   -5.12   -0.77   0.000   0.200   0.000    0.00
   7.550   20.38   -7.91   -1.28   0.000   0.200   0.000    0.00
   7.600   19.94   -6.78   -1.39   0.000   0.200   0.000    0.00
   7.650   19.63   -5.65   -0.34   0.000   0.200   0.000    0.00
   7.700   20.66   -8.77   -0.12   0.000   0.200   0.000    0.00
   7.750   20.22   -5.62    0.09   0.000   0.200   0.000    0.00
   7.800   20.03   -3.98    0.10   0.000   0.200   0.000    0.00
   7.850   20.26   -4.42    0.17   0.000   0.200   0.000    0.00
   7.900   20.23   -1.95   -0.04   0.000   0.200   0.000    0.00
   7.950   20.57   -0.35    1.06   0.000   0.200   0.000    0.00
   8.000   20.48    1.44    1.36   0.000   0.200   0.000    0.00
   8.050   20.63    2.27    0.57   0.000   0.200   0.000    0.00
   8.100   20.08   -0.48    0.30   0.000   0.200   0.000    0.00
   8.150   19.85    0.25    0.25   0.000   0.200   0.000    0.00
   8.200   20.25   -2.21    0.87   0.000   0.200   0.000    0.00
   8.250   20.68   -1.74   -0.80   0.000   0.200   0.000    0.00
   8.300   21.08    1.08   -1.05   0.000   0.200   0.000    0.00
   8.350   20.20    1.81   -0.69   0.000   0.200   0.000    0.00
   8.400   19.70    0.54   -0.63   0.000   0.200   0.000    0.00
   8.450   19.51   -1.09   -0.16   0.000   0.200   0.000    0.00
   8.500   19.63   -0.23    0.03   0.000   0.200   0.000    0.00
   8.550   19.49   -4.33    0.06   0.000   0.200   0.000    0.00
   8.600   20.67   -0.88    0.94   0.000   0.200   0.000    0.00
   8.650   21.93   -0.63    1.80   0.000   0.200   0.000    0.00
   8.700   22.46   -5.00    0.94   0.000   0.200   0.000    0.00
   8.750   23.22   -5.05    0.49   0.000   0.200   0.000    0.00
   8.800   23.27   -4.56    0.60   0.000   0.200   0.000    0.00
   8.850   23.12   -4.20    1.36   0.000   0.200   0.000    0.00
   8.900   22.71   -5.45    2.49   0.000   0.200   0.000    0.00
   8.950   22.16   -3.46    1.77   0.000   0.200   0.000    0.00
   9.000   22.33   -4.34    1.80   0.000   0.200   0.000    0.00
   9.050   22.03   -4.53    2.18   0.000   0.200   0.000    0.00
   9.100   21.93   -4.86    1.74   0.000   0.200   0.000    0.00
   9.150   22.75   -3.91    2.10   0.000   0.200   0.000    0.00
   9.200   22.39   -3.13    1.97   0.000   0.200   0.000    0.00
   9.250   22.00   -4.91    1.81   0.000   0.200   0.000    0.00
   9.300   22.47   -3.43    1.49   0.000   0.200   0.000    0.00
   9.350   22.11   -4.08    1.47   0.000   0.200   0.000    0.00
   9.400   22.01   -1.42    1.02   0.000   0.200   0.000    0.00
   9.450   22.15   -0.25    0.00   0.000   0.200   0.000    0.00
   9.500   22.10    1.40   -0.14   0.000   0.200   0.000    0.00
   9.550   22.26    2.19   -0.30   0.000   0.200   0.000    0.00
   9.600   21.68    1.48   -0.56   0.000   0.200   0.000    0.00
   9.650   21.64    0.60   -0.82   0.000   0.200   0.000    0.00
   9.700   22.27    1.40   -0.66   0.000   0.200   0.000    0.00
   9.750   22.10   -0.53    0.00   0.000   0.200   0.000    0.00
   9.800   22.03    1.28    0.44   0.000   0.200   0.000    0.00
   9.850   22.97    1.10   -0.27   0.000   0.200   0.000    0.00
   9.900   21.99    0.20   -0.67   0.000   0.200   0.000    0.00
   9.950   21.63    0.52   -0.41   0.000   0.200   0.000    0.00
  10.000   21.17    2.42   -1.42   0.000   0.200   0.000    0.00
  10.050   21.55    1.56   -1.46   0.000   0.200   0.000    0.00
  10.100   22.08   -0.47   -1.41   0.000   0.200   0.000    0.00
  10.150   22.49   -1.01   -2.05   0.000   0.200   0.000    0.00
  10.200   21.78   -3.31   -1.28   0.000   0.200   0.000    0.00
  10.250   21.40   -3.94   -0.96   0.000   0.200   0.000    0.00
  10.300   21.17   -4.32   -1.16   0.000   0.200   0.000    0.00
  10.350   21.18   -4.47   -0.80   0.000   0.200   0.000    0.00
  10.400   20.86   -1.52   -1.05   0.000   0.200   0.000    0.00
  10.450   20.72    0.26   -0.79   0.000   0.200   0.000    0.00
  10.500   20.98    0.37   -1.25   0.000   0.200   0.000    0.00
  10.550   20.70   -1.07   -0.62   0.000   0.200   0.000    0.00
  10.600   20.00    0.77   -1.20   0.000   0.200   0.000    0.00
  10.650   19.03    1.16   -0.72   0.000   0.200   0.000    0.00
  10.700   18.85   -1.34   -0.81   0.000   0.200   0.000    0.00
  10.750   18.96   -1.52   -0.89   0.000   0.200   0.000    0.00
  10.800   18.87   -4.80   -0.83   0.000   0.200   0.000    0.00
  10.850   18.70   -1.95   -0.71   0.000   0.200   0.000    0.00
  10.900   18.49    0.25   -0.82   0.000   0.200   0.000    0.00
  10.950   18.32   -1.75   -1.37   0.000   0.200   0.000    0.00
  11.000   18.56   -5.61   -0.90   0.000   0.200   0.000    0.00
  11.050   18.53   -3.68   -1.06   0.000   0.200   0.000    0.00
  11.100   17.44   -5.61    0.02   0.000   0.200   0.000    0.00
  11.150   17.54   -8.48    0.15   0.000   0.200   0.000    0.00
  11.200   17.46   -7.04   -1.59   0.000   0.200   0.000    0.00
  11.250   17.42   -5.96   -0.60   0.000   0.200   0.000    0.00
  11.300   17.70   -4.31    0.44   0.000   0.200   0.000    0.00
  11.350   18.33   -3.70   -0.23   0.000   0.200   0.000    0.00
  11.400   18.43   -0.95    0.28   0.000   0.200   0.000    0.00
  11.450   17.09   -2.96    0.12   0.000   0.200   0.000    0.00
  11.500   16.63   -2.69    0.46   0.000   0.200   0.000    0.00
  11.550   17.41   -3.17    0.57   0.000   0.200   0.000    0.00
  11.600   17.87   -5.49    0.80   0.000   0.200   0.000    0.00
  11.650   17.65   -4.29    0.66   0.000   0.200   0.000    0.00
  11.700   18.56   -2.78    0.82   0.000   0.200   0.000    0.00
  11.750   18.57   -0.28    0.39   0.000   0.200   0.000    0.00
  11.800   18.09   -1.16   -0.49   0.000   0.200   0.000    0.00
  11.850   17.57   -0.06   -0.95   0.000   0.200   0.000    0.00
  11.900   17.37    0.75    0.11   0.000   0.200   0.000    0.00
  11.950   16.28   -0.61    0.50   0.000   0.200   0.000    0.00
  12.000   17.15    1.12   -0.72   0.000   0.200   0.000    0.00
  12.050   17.53   -0.03   -0.72   0.000   0.200   0.000    0.00
  12.100   17.75   -0.04   -0.84   0.000   0.200   0.000    0.00
  12.150   17.36   -0.81   -0.95   0.000   0.200   0.000    0.00
  12.200   17.73   -3.02   -0.60   0.000   0.200   0.000    0.00
  12.250   17.90    0.18   -0.62   0.000   0.200   0.000    0.00
  12.300   19.40   -1.59   -0.98   0.000   0.200   0.000    0.00
  12.350   19.48   -2.71   -1.31   0.000   0.200   0.000    0.00
  12.400   19.43   -0.48   -1.29   0.000   0.200   0.000    0.00
  12.450   19.39   -0.38   -1.08   0.000   0.200   0.000    0.00
  12.500   19.51    0.73   -0.33   0.000   0.200   0.000    0.00
  12.550   19.03    1.02    0.34   0.000   0.200   0.000    0.00
  12.600   18.15   -1.52    1.55   0.000   0.200   0.000    0.00
  12.650   18.13   -4.57    1.43   0.000   0.200   0.000    0.00
  12.700   17.68   -5.37    1.26   0.000   0.200   0.000    0.00
  12.750   17.99   -4.00    0.94   0.000   0.200   0.000    0.00
  12.800   17.52   -5.00    1.80   0.000   0.200   0.000    0.00
  12.850   17.52   -4.50    2.09   0.000   0.200   0.000    0.00
  12.900   16.70   -6.58    1.98   0.000   0.200   0.000    0.00
  12.950   16.99   -8.14    1.55   0.000   0.200   0.000    0.00
  13.000   18.06   -7.14    0.92   0.000   0.200   0.000    0.00
  13.050   18.93   -7.46    0.58   0.000   0.200   0.000    0.00
  13.100   18.88   -5.32   -0.72   0.000   0.200   0.000    0.00
  13.150   18.46   -4.16   -0.06   0.000   0.200   0.000    0.00
  13.200   17.46   -3.13    0.91   0.000   0.200   0.000    0.00
  13.250   18.09   -2.59    2.00   0.000   0.200   0.000    0.00
  13.300   19.25   -3.23    1.18   0.000   0.200   0.000    0.00
  13.350   19.08   -1.73    0.96   0.000   0.200   0.000    0.00
  13.400   19.60    1.21    1.49   0.000   0.200   0.000    0.00
  13.450   19.71    0.85    1.45   0.000   0.200   0.000    0.00
  13.500   19.13   -0.92    1.74   0.000   0.200   0.000    0.00
  13.550   17.92   -1.11    0.43   0.000   0.200   0.000    0.00
  13.600   18.52   -3.69   -0.11   0.000   0.200   0.000    0.00
  13.650   18.35   -5.24    0.40   0.000   0.200   0.000    0.00
  13.700   17.81   -8.28    0.44   0.000   0.200   0.000    0.00
  13.750   17.83  -10.37    0.69   0.000   0.200   0.000    0.00
  13.800   17.57   -6.69   -0.50   0.000   0.200   0.000    0.00
  13.850   17.09   -6.67   -0.24   0.000   0.200   0.000    0.00
  13.900   16.80   -7.45   -0.06   0.000   0.200   0.000    0.00
  13.950   17.16   -8.67   -0.45   0.000   0.200   0.000    0.00
  14.000   17.57   -8.67   -0.19   0.000   0.200   0.000    0.00
  14.050   17.57   -8.72   -0.73   0.000   0.200   0.000    0.00
  14.100   17.01   -4.98   -0.87   0.000   0.200   0.000    0.00
  14.150   17.20   -2.83   -0.94   0.000   0.200   0.000    0.00
  14.200   17.22   -2.43    0.28   0.000   0.200   0.000    0.00
  14.250   16.97   -0.04   -0.08   0.000   0.200   0.000    0.00
  14.300   17.67    1.30    0.50   0.000   0.200   0.000    0.00
  14.350   18.32    0.54    0.10   0.000   0.200   0.000    0.00
  14.400   18.48   -0.91   -0.28   0.000   0.200   0.000    0.00
  14.450   18.79    2.58    0.48   0.000   0.200   0.000    0.00
  14.500   18.37    5.20    0.70   0.000   0.200   0.000    0.00
  14.550   18.68    5.48    0.16   0.000   0.200   0.000    0.00
  14.600   18.75    3.80    0.43   0.000   0.200   0.000    0.00
  14.650   18.61    4.47    0.17   0.000   0.200   0.000    0.00
  14.700   18.82    0.82    0.56   0.000   0.200   0.000    0.00
  14.750   18.75    1.24    0.41   0.000   0.200   0.000    0.00
  14.800   18.80   -1.00    0.14   0.000   0.200   0.000    0.00
  14.850   19.38   -1.89    0.13   0.000   0.200   0.000    0.00
  14.900   19.05   -3.32    0.28   0.000   0.200   0.000    0.00
  14.950   19.13   -2.33    0.53   0.000   0.200   0.000    0.00
  15.000   18.08   -3.56    0.66   0.000   0.200   0.000    0.00
  15.050   18.32   -0.19   -0.20   0.000   0.200   0.000    0.00
  15.100   18.54   -2.03   -0.69   0.000   0.200   0.000    0.00
  15.150   18.75   -2.96   -1.50   0.000   0.200   0.000    0.00
  15.200   18.63   -1.66   -1.55   0.000   0.200   0.000    0.00
  15.250   18.32   -2.56   -1.27   0.000   0.200   0.000    0.00
  15.300   18.16   -0.50   -0.71   0.000   0.200   0.000    0.00
  15.350   17.19   -3.08   -0.95   0.000   0.200   0.000    0.00
  15.400   17.88   -4.65   -0.98   0.000   0.200   0.000    0.00
  15.450   18.36   -2.41   -0.55   0.000   0.200   0.000    0.00
  15.500   17.80   -1.23    0.30   0.000   0.200   0.000    0.00
  15.550   17.78   -4.50   -0.09   0.000   0.200   0.000    0.00
  15.600   17.82   -1.87   -0.41   0.000   0.200   0.000    0.00
  15.650   18.51   -3.10   -0.52   0.000   0.200   0.000    0.00
  15.700   18.61    0.18   -0.53   0.000   0.200   0.000    0.00
  15.750   18.82    1.78   -0.75   0.000   0.200   0.000    0.00
  15.800   18.49    2.27   -0.84   0.000   0.200   0.000    0.00
  15.850   17.86    4.32   -1.33   0.000   0.200   0.000    0.00
  15.900   17.98    3.88   -1.22   0.000   0.200   0.000    0.00
  15.950   18.64    6.52   -0.83   0.000   0.200   0.000    0.00
  16.000   18.90    6.97   -0.81   0.000   0.200   0.000    0.00
  16.050   18.64    5.19   -0.73   0.000   0.200   0.000    0.00
  16.100   18.26    6.02   -0.61   0.000   0.200   0.000    0.00
  16.150   18.71    3.70    0.44   0.000   0.200   0.000    0.00
  16.200   19.32    0.37    0.07   0.000   0.200   0.000    0.00
  16.250   19.88    1.32   -0.94   0.000   0.200   0.000    0.00
  16.300   19.59    0.06   -0.89   0.000   0.200   0.000    0.00
  16.350   20.08   -1.12   -1.34   0.000   0.200   0.000    0.00
  16.400   20.06   -3.95   -1.70   0.000   0.200   0.000    0.00
  16.450   20.56   -5.06   -1.06   0.000   0.200   0.000    0.00
  16.500   20.62   -4.46   -0.87   0.000   0.200   0.000    0.00
  16.550   21.08   -2.11   -1.01   0.000   0.200   0.000    0.00
  16.600   21.56   -3.69   -1.15   0.000   0.200   0.000    0.00
  16.650   21.14   -3.34   -1.38   0.000   0.200   0.000    0.00
  16.700   20.76   -2.49   -2.18   0.000   0.200   0.000    0.00
  16.750   20.37   -2.31   -2.32   0.000   0.200   0.000    0.00
  16.800   19.55   -2.83   -1.59   0.000   0.200   0.000    0.00
  16.850   19.63   -2.26   -2.55   0.000   0.200   0.000    0.00
  16.900   19.92   -3.78   -2.76   0.000   0.200   0.000    0.00
  16.950   20.17   -2.69   -1.98   0.000   0.200   0.000    0.00
  17.000   20.93    0.28   -2.37   0.000   0.200   0.000    0.00
  17.050   20.45    0.21   -2.95   0.000   0.200   0.000    0.00
  17.100   20.20    0.69   -2.40   0.000   0.200   0.000    0.00
  17.150   20.61    2.64   -1.48   0.000   0.200   0.000    0.00
  17.200   20.84    1.17   -1.36   0.000   0.200   0.000    0.00
  17.250   20.47   -1.52   -1.18   0.000   0.200   0.000    0.00
  17.300   19.64   -1.01   -0.47   0.000   0.200   0.000    0.00
  17.350   19.06    0.23    0.14   0.000   0.200   0.000    0.00
  17.400   19.00    1.63    0.90   0.000   0.200   0.000    0.00
  17.450   19.55    1.16    1.17   0.000   0.200   0.000    0.00
  17.500   19.41    2.85    0.47   0.000   0.200   0.000    0.00
  17.550   19.83    2.58    0.14   0.000   0.200   0.000    0.00
  17.600   20.11    5.58    0.19   0.000   0.200   0.000    0.00
  17.650   19.68    9.22   -0.03   0.000   0.200   0.000    0.00
  17.700   19.67   10.11   -0.51   0.000   0.200   0.000    0.00
  17.750   19.70   10.03   -0.60   0.000   0.200   0.000    0.00
  17.800   19.83    8.12   -0.67   0.000   0.200   0.000    0.00
  17.850   19.49    6.41    0.12   0.000   0.200   0.000    0.00
  17.900   19.73    4.84    1.03   0.000   0.200   0.000    0.00
  17.950   18.92    5.23    0.56   0.000   0.200   0.000    0.00
  18.000   19.15    8.82    0.65   0.000   0.200   0.000    0.00
  18.050   19.19    9.71    0.78   0.000   0.200   0.000    0.00
  18.100   18.57    9.75    0.80   0.000   0.200   0.000    0.00
  18.150   19.72   11.21    0.45   0.000   0.200   0.000    0.00
  18.200   19.61    9.76    0.09   0.000   0.200   0.000    0.00
  18.250   20.19    7.83   -0.64   0.000   0.200   0.000    0.00
  18.300   21.07    9.40    0.00   0.000   0.200   0.000    0.00
  18.350   20.18   10.70   -0.38   0.000   0.200   0.000    0.00
  18.400   20.08    8.08   -1.05   0.000   0.200   0.000    0.00
  18.450   19.66    4.93   -1.25   0.000   0.200   0.000    0.00
  18.500   19.54    7.83   -0.50   0.000   0.200   0.000    0.00
  18.550   19.81    6.58   -0.60   0.000   0.200   0.000    0.00
  18.600   20.03    7.24   -1.13   0.000   0.200   0.000    0.00
  18.650   20.14    7.14   -0.34   0.000   0.200   0.000    0.00
  18.700   19.77    5.11    0.60   0.000   0.200   0.000    0.00
  18.750   19.47    4.39    0.23   0.000   0.200   0.000    0.00
  18.800   18.98    6.00    0.14   0.000   0.200   0.000    0.00
  18.850   19.13    3.22    1.33   0.000   0.200   0.000    0.00
  18.900   19.96    4.69    1.24   0.000   0.200   0.000    0.00
  18.950   20.09    7.78    0.77   0.000   0.200   0.000    0.00
  19.000   20.14    6.51    0.84   0.000   0.200   0.000    0.00
  19.050   20.05    7.04    0.89   0.000   0.200   0.000    0.00
  19.100   19.74    7.89    1.84   0.000   0.200   0.000    0.00
  19.150   20.27    4.70    1.18   0.000   0.200   0.000    0.00
  19.200   20.64    5.81    0.69   0.000   0.200   0.000    0.00
  19.250   20.90    4.39    0.38   0.000   0.200   0.000    0.00
  19.300   20.73    4.57    0.32   0.000   0.200   0.000    0.00
  19.350   20.06    3.26    0.02   0.000   0.200   0.000    0.00
  19.400   20.07   -1.46   -0.43   0.000   0.200   0.000    0.00
  19.450   19.49    0.87   -0.87   0.000   0.200   0.000    0.00
  19.500   18.76    1.23   -1.40   0.000   0.200   0.000    0.00
  19.550   19.29   -1.01   -1.52   0.000   0.200   0.000    0.00
  19.600   19.38   -0.89   -0.90   0.000   0.200   0.000    0.00
  19.650   20.14   -2.08   -1.07   0.000   0.200   0.000    0.00
  19.700   19.57   -1.24   -0.81   0.000   0.200   0.000    0.00
  19.750   18.83    0.90    0.46   0.000   0.200   0.000    0.00
  19.800   18.41   -0.77    0.75   0.000   0.200   0.000    0.00
  19.850   18.53   -0.22    0.67   0.000   0.200   0.000    0.00
  19.900   18.27    0.40    0.61   0.000   0.200   0.000    0.00
  19.950   18.57    1.46    1.07   0.000   0.200   0.000    0.00
  20.000   18.32    1.41   -0.01   0.000   0.200   0.000    0.00
  20.050   18.90   -1.23    0.51   0.000   0.200   0.000    0.00
  20.100   18.74   -1.91    1.56   0.000   0.200   0.000    0.00
  20.150   18.58   -0.58    1.58   0.000   0.200   0.000    0.00
  20.200   18.24    3.22    2.97   0.000   0.200   0.000    0.00
  20.250   18.35    2.22    3.33   0.000   0.200   0.000    0.00
  20.300   18.41   -0.48    2.21   0.000   0.200   0.000    0.00
  20.350   18.50    2.86    1.68   0.000   0.200   0.000    0.00
  20.400   18.28    2.64    1.36   0.000   0.200   0.000    0.00
  20.450   17.23    3.94    2.07   0.000   0.200   0.000    0.00
  20.500   16.88    3.69    1.96   0.000   0.200   0.000    0.00
  20.550   16.73    0.13    2.10   0.000   0.200   0.000    0.00
  20.600   15.98   -2.30    1.55   0.000   0.200   0.000    0.00
  20.650   15.83   -1.87    1.81   0.000   0.200   0.000    0.00
  20.700   16.50   -2.60    1.82   0.000   0.200   0.000    0.00
  20.750   16.54   -4.16    1.93   0.000   0.200   0.000    0.00
  20.800   17.04   -3.91    1.64   0.000   0.200   0.000    0.00
  20.850   17.43   -4.32    0.87   0.000   0.200   0.000    0.00
  20.900   17.26   -7.49    0.59   0.000   0.200   0.000    0.00
  20.950   17.83   -6.78    0.75   0.000   0.200   0.000    0.00
  21.000   18.38   -4.04    1.62   0.000   0.200   0.000    0.00
  21.050   19.56   -3.77    1.47   0.000   0.200   0.000    0.00
  21.100   18.61   -3.45    0.40   0.000   0.200   0.000    0.00
  21.150   18.17   -0.90    0.32   0.000   0.200   0.000    0.00
  21.200   18.21   -0.14    0.65   0.000   0.200   0.000    0.00
  21.250   18.49   -0.94    0.53   0.000   0.200   0.000    0.00
  21.300   19.13   -2.59    0.35   0.000   0.200   0.000    0.00
  21.350   19.19   -3.00   -0.24   0.000   0.200   0.000    0.00
  21.400   19.04    0.85   -0.63   0.000   0.200   0.000    0.00
  21.450   19.33   -2.38   -1.80   0.000   0.200   0.000    0.00
  21.500   19.22   -2.90   -0.66   0.000   0.200   0.000    0.00
  21.550   19.18   -1.02   -1.09   0.000   0.200   0.000    0.00
  21.600   19.18    0.17   -0.73   0.000   0.200   0.000    0.00
  21.650   18.86   -0.94   -1.05   0.000   0.200   0.000    0.00
  21.700   18.24   -2.98   -0.64   0.000   0.200   0.000    0.00
  21.750   17.86   -5.04    0.05   0.000   0.200   0.000    0.00
  21.800   17.75   -6.48    0.45   0.000   0.200   0.000    0.00
  21.850   17.45   -4.89    0.30   0.000   0.200   0.000    0.00
  21.900   16.98   -3.95    0.31   0.000   0.200   0.000    0.00
  21.950   17.80   -2.83   -0.39   0.000   0.200   0.000    0.00
  22.000   17.76   -0.58    0.88   0.000   0.200   0.000    0.00
  22.050   18.06    1.58    0.39   0.000   0.200   0.000    0.00
  22.100   18.74    1.48    0.83   0.000   0.200   0.000    0.00
  22.150   19.01    1.29    0.23   0.000   0.200   0.000    0.00
  22.200   19.41   -0.40    0.18   0.000   0.200   0.000    0.00
  22.250   18.99    0.43    0.30   0.000   0.200   0.000    0.00
  22.300   18.62    1.11   -0.34   0.000   0.200   0.000    0.00
  22.350   18.49    0.75   -0.30   0.000   0.200   0.000    0.00