! This hub-height wind-speed file was generated by TurbSim (v1.06.00, 21-Sep-2012) on 03-Feb-2018 at 23:28:18.
!
! The requested statistics for this data were:
!    Mean Total Wind Speed =    5.000 m/s
!    Turbulence Intensity  =   51.162%
!
!   Time  HorSpd  WndDir  VerSpd  HorShr  VerShr  LnVShr  GstSpd
!  (sec)   (m/s)   (deg)   (m/s)     (-)     (-)     (-)   (m/s)
   0.000    2.26   -5.42   -0.32   0.000   0.200   0.000    0.00
   0.050    2.24   -9.22   -0.84   0.000   0.200   0.000    0.00
   0.100    2.02    4.18   -1.50   0.000   0.200   0.000    0.00
   0.150    2.02    2.81   -1.11   0.000   0.200   0.000    0.00
   0.200    1.98   -3.51   -1.30   0.000   0.200   0.000    0.00
   0.250    2.63   -8.45   -0.70   0.000   0.200   0.000    0.00
   0.300    2.33   -8.26   -0.53   0.000   0.200   0.000    0.00
   0.350    2.54  -19.45   -0.78   0.000   0.200   0.000    0.00
   0.400    2.54  -10.48   -0.56   0.000   0.200   0.000    0.00
   0.450    2.68  -19.37   -0.49   0.000   0.200   0.000    0.00
   0.500    2.82  -23.34   -0.51   0.000   0.200   0.000    0.00
   0.550    2.83  -14.92   -0.86   0.000   0.200   0.000    0.00
   0.600    2.54  -21.71   -0.50   0.000   0.200   0.000    0.00
   0.650    2.35  -29.68   -0.44   0.000   0.200   0.000    0.00
   0.700    2.29  -21.91   -0.53   0.000   0.200   0.000    0.00
   0.750    1.76  -47.12   -0.52   0.000   0.200   0.000    0.00
   0.800    1.88  -36.02   -0.19   0.000   0.200   0.000    0.00
   0.850    1.80  -24.80   -0.08   0.000   0.200   0.000    0.00
   0.900    1.93  -17.47   -0.31   0.000   0.200   0.000    0.00
   0.950    1.68  -30.07   -0.97   0.000   0.200   0.000    0.00
   1.000    1.17    2.72   -0.84   0.000   0.200   0.000    0.00
   1.050    1.26   -6.09   -0.82   0.000   0.200   0.000    0.00
   1.100    1.18   -4.53   -0.42   0.000   0.200   0.000    0.00
   1.150    1.36   18.57   -0.35   0.000   0.200   0.000    0.00
   1.200    1.04   23.61   -0.52   0.000   0.200   0.000    0.00
   1.250    0.96   -0.27   -0.08   0.000   0.200   0.000    0.00
   1.300    1.11   -3.57   -0.68   0.000   0.200   0.000    0.00
   1.350    1.68    2.29   -0.79   0.000   0.200   0.000    0.00
   1.400    1.48    6.20   -0.26   0.000   0.200   0.000    0.00
   1.450    1.72   12.77   -0.30   0.000   0.200   0.000    0.00
   1.500    1.73   29.51    0.05   0.000   0.200   0.000    0.00
   1.550    1.91   21.02    0.01   0.000   0.200   0.000    0.00
   1.600    2.19   20.83   -0.15   0.000   0.200   0.000    0.00
   1.650    1.76    7.00    0.25   0.000   0.200   0.000    0.00
   1.700    1.61   12.77    0.04   0.000   0.200   0.000    0.00
   1.750    2.33   16.81   -0.20   0.000   0.200   0.000    0.00
   1.800    2.46   21.38   -0.94   0.000   0.200   0.000    0.00
   1.850    2.70   20.39   -1.09   0.000   0.200   0.000    0.00
   1.900    3.01   19.05   -0.25   0.000   0.200   0.000    0.00
   1.950    3.12   30.32   -0.39   0.000   0.200   0.000    0.00
   2.000    3.69   33.80   -0.21   0.000   0.200   0.000    0.00
   2.050    3.49   31.04    0.19   0.000   0.200   0.000    0.00
   2.100    3.72   33.77    0.24   0.000   0.200   0.000    0.00
   2.150    4.17   31.13    0.25   0.000   0.200   0.000    0.00
   2.200    3.67   32.38    0.09   0.000   0.200   0.000    0.00
   2.250    3.54   31.77   -0.21   0.000   0.200   0.000    0.00
   2.300    3.55   39.68   -0.93   0.000   0.200   0.000    0.00
   2.350    3.88   46.41   -1.51   0.000   0.200   0.000    0.00
   2.400    4.12   43.84   -1.38   0.000   0.200   0.000    0.00
   2.450    3.55   37.83   -1.61   0.000   0.200   0.000    0.00
   2.500    3.50   30.53   -1.47   0.000   0.200   0.000    0.00
   2.550    3.27   39.03   -1.61   0.000   0.200   0.000    0.00
   2.600    3.47   27.41   -1.37   0.000   0.200   0.000    0.00
   2.650    3.33   30.86   -0.88   0.000   0.200   0.000    0.00
   2.700    3.35   35.33   -1.13   0.000   0.200   0.000    0.00
   2.750    3.11   31.48   -1.34   0.000   0.200   0.000    0.00
   2.800    3.25   37.80   -1.93   0.000   0.200   0.000    0.00
   2.850    3.12   34.24   -1.54   0.000   0.200   0.000    0.00
   2.900    3.08   39.34   -1.59   0.000   0.200   0.000    0.00
   2.950    3.90   27.06   -2.06   0.000   0.200   0.000    0.00
   3.000    3.61   25.05   -1.67   0.000   0.200   0.000    0.00
   3.050    3.41   30.41   -1.84   0.000   0.200   0.000    0.00
   3.100    3.63   27.25   -1.87   0.000   0.200   0.000    0.00
   3.150    4.02   29.78   -2.04   0.000   0.200   0.000    0.00
   3.200    3.94   36.13   -1.87   0.000   0.200   0.000    0.00
   3.250    4.53   40.24   -1.97   0.000   0.200   0.000    0.00
   3.300    4.21   42.42   -1.86   0.000   0.200   0.000    0.00
   3.350    3.91   51.29   -2.06   0.000   0.200   0.000    0.00
   3.400    3.90   44.37   -1.21   0.000   0.200   0.000    0.00
   3.450    3.82   42.09   -0.37   0.000   0.200   0.000    0.00
   3.500    3.64   32.68   -0.66   0.000   0.200   0.000    0.00
   3.550    3.51   35.01   -0.42   0.000   0.200   0.000    0.00
   3.600    3.70   26.98    0.14   0.000   0.200   0.000    0.00
   3.650    3.54   26.29    0.38   0.000   0.200   0.000    0.00
   3.700    3.77   25.18    0.63   0.000   0.200   0.000    0.00
   3.750    3.33   22.63    0.36   0.000   0.200   0.000    0.00
   3.800    3.33   17.29    0.37   0.000   0.200   0.000    0.00
   3.850    3.33   18.02    1.01   0.000   0.200   0.000    0.00
   3.900    3.45   18.81    0.60   0.000   0.200   0.000    0.00
   3.950    3.54   24.95    0.98   0.000   0.200   0.000    0.00
   4.000    3.91   30.16    0.68   0.000   0.200   0.000    0.00
   4.050    4.03   37.18    0.21   0.000   0.200   0.000    0.00
   4.100    4.21   30.30    0.07   0.000   0.200   0.000    0.00
   4.150    4.34   28.98    0.33   0.000   0.200   0.000    0.00
   4.200    3.92   33.46    0.66   0.000   0.200   0.000    0.00
   4.250    4.06   30.57    0.49   0.000   0.200   0.000    0.00
   4.300    4.00   33.59    0.41   0.000   0.200   0.000    0.00
   4.350    4.06   38.79    0.42   0.000   0.200   0.000    0.00
   4.400    4.09   40.28    0.28   0.000   0.200   0.000    0.00
   4.450    4.62   39.41    0.21   0.000   0.200   0.000    0.00
   4.500    4.71   36.09   -0.42   0.000   0.200   0.000    0.00
   4.550    4.98   39.55   -0.52   0.000   0.200   0.000    0.00
   4.600    4.89   36.04   -1.10   0.000   0.200   0.000    0.00
   4.650    5.12   34.39   -1.34   0.000   0.200   0.000    0.00
   4.700    5.21   32.31   -1.84   0.000   0.200   0.000    0.00
   4.750    5.49   27.13   -2.30   0.000   0.200   0.000    0.00
   4.800    5.61   29.43   -2.45   0.000   0.200   0.000    0.00
   4.850    5.75   23.69   -2.16   0.000   0.200   0.000    0.00
   4.900    5.91   15.96   -2.21   0.000   0.200   0.000    0.00
   4.950    5.98   17.28   -2.26   0.000   0.200   0.000    0.00
   5.000    5.56   17.48   -2.28   0.000   0.200   0.000    0.00
   5.050    5.69   14.60   -2.31   0.000   0.200   0.000    0.00
   5.100    6.04   12.74   -2.73   0.000   0.200   0.000    0.00
   5.150    6.16   14.95   -2.68   0.000   0.200   0.000    0.00
   5.200    5.54   13.33   -1.75   0.000   0.200   0.000    0.00
   5.250    5.93   10.88   -1.72   0.000   0.200   0.000    0.00
   5.300    5.69   12.35   -1.29   0.000   0.200   0.000    0.00
   5.350    5.56    9.98   -1.34   0.000   0.200   0.000    0.00
   5.400    5.60   15.74   -1.55   0.000   0.200   0.000    0.00
   5.450    6.00   15.85   -1.13   0.000   0.200   0.000    0.00
   5.500    6.34   15.82   -0.66   0.000   0.200   0.000    0.00
   5.550    6.16    7.91   -1.11   0.000   0.200   0.000    0.00
   5.600    6.06    5.27   -0.87   0.000   0.200   0.000    0.00
   5.650    5.75    3.10   -0.85   0.000   0.200   0.000    0.00
   5.700    5.77    4.33   -0.75   0.000   0.200   0.000    0.00
   5.750    5.99    6.50   -0.78   0.000   0.200   0.000    0.00
   5.800    6.05    6.57   -1.12   0.000   0.200   0.000    0.00
   5.850    6.01    2.37   -1.43   0.000   0.200   0.000    0.00
   5.900    5.79   -2.82   -1.21   0.000   0.200   0.000    0.00
   5.950    5.51   -1.12   -1.49   0.000   0.200   0.000    0.00
   6.000    5.60   -7.31   -1.46   0.000   0.200   0.000    0.00
   6.050    5.56  -11.51   -1.52   0.000   0.200   0.000    0.00
   6.100    4.95  -13.25   -1.15   0.000   0.200   0.000    0.00
   6.150    4.97   -4.38   -1.32   0.000   0.200   0.000    0.00
   6.200    4.97   -4.29   -1.06   0.000   0.200   0.000    0.00
   6.250    5.53    3.13   -1.30   0.000   0.200   0.000    0.00
   6.300    5.61    2.02   -1.18   0.000   0.200   0.000    0.00
   6.350    5.40   -2.93   -0.35   0.000   0.200   0.000    0.00
   6.400    5.29   -2.12    0.30   0.000   0.200   0.000    0.00
   6.450    5.26    1.26   -0.25   0.000   0.200   0.000    0.00
   6.500    5.37    2.98   -0.09   0.000   0.200   0.000    0.00
   6.550    4.86    9.53    0.08   0.000   0.200   0.000    0.00
   6.600    5.22   12.36   -0.40   0.000   0.200   0.000    0.00
   6.650    5.67   10.24   -0.65   0.000   0.200   0.000    0.00
   6.700    5.54   12.56   -0.41   0.000   0.200   0.000    0.00
   6.750    5.75   13.47   -0.47   0.000   0.200   0.000    0.00
   6.800    6.01   10.64   -0.34   0.000   0.200   0.000    0.00
   6.850    5.94   13.31   -0.13   0.000   0.200   0.000    0.00
   6.900    5.60   10.36    0.19   0.000   0.200   0.000    0.00
   6.950    5.51    7.54    0.26   0.000   0.200   0.000    0.00
   7.000    5.13    7.94    1.04   0.000   0.200   0.000    0.00
   7.050    5.29    4.09    0.80   0.000   0.200   0.000    0.00
   7.100    5.69    2.79    0.42   0.000   0.200   0.000    0.00
   7.150    4.91    6.83    0.29   0.000   0.200   0.000    0.00
   7.200    5.47    0.34    0.47   0.000   0.200   0.000    0.00
   7.250    5.49    0.67    0.11   0.000   0.200   0.000    0.00
   7.300    5.33   -0.22    0.32   0.000   0.200   0.000    0.00
   7.350    5.42    4.12    0.73   0.000   0.200   0.000    0.00
   7.400    5.41   -1.17    0.54   0.000   0.200   0.000    0.00
   7.450    5.70   -1.62    0.61   0.000   0.200   0.000    0.00
   7.500    6.28    2.99    0.30   0.000   0.200   0.000    0.00
   7.550    5.97   -2.32    0.38   0.000   0.200   0.000    0.00
   7.600    5.97   -8.07    0.19   0.000   0.200   0.000    0.00
   7.650    6.23   -5.46    0.35   0.000   0.200   0.000    0.00
   7.700    6.52   -7.62    0.03   0.000   0.200   0.000    0.00
   7.750    5.92   -3.56    0.27   0.000   0.200   0.000    0.00
   7.800    5.79   -4.03    0.39   0.000   0.200   0.000    0.00
   7.850    5.84   -5.19    0.25   0.000   0.200   0.000    0.00
   7.900    5.78   -8.39    0.05   0.000   0.200   0.000    0.00
   7.950    5.81   -7.63    0.33   0.000   0.200   0.000    0.00
   8.000    6.03   -8.35    0.35   0.000   0.200   0.000    0.00
   8.050    5.73   -6.08    1.16   0.000   0.200   0.000    0.00
   8.100    5.58   -5.49    1.69   0.000   0.200   0.000    0.00
   8.150    5.86   -1.46    1.61   0.000   0.200   0.000    0.00
   8.200    6.16   -3.54    1.32   0.000   0.200   0.000    0.00
   8.250    6.46    2.02    1.53   0.000   0.200   0.000    0.00
   8.300    6.55    5.81    1.08   0.000   0.200   0.000    0.00
   8.350    6.58    3.82    0.97   0.000   0.200   0.000    0.00
   8.400    6.63    2.85    0.67   0.000   0.200   0.000    0.00
   8.450    6.51   -0.28    1.29   0.000   0.200   0.000    0.00
   8.500    6.30   -1.33    0.93   0.000   0.200   0.000    0.00
   8.550    5.89   -2.46    0.70   0.000   0.200   0.000    0.00
   8.600    6.06   -5.18    0.87   0.000   0.200   0.000    0.00
   8.650    5.62   -0.91    1.10   0.000   0.200   0.000    0.00
   8.700    5.65    0.40    0.92   0.000   0.200   0.000    0.00
   8.750    6.02   -1.27    0.60   0.000   0.200   0.000    0.00
   8.800    6.60    0.07    0.74   0.000   0.200   0.000    0.00
   8.850    6.90    0.11    0.92   0.000   0.200   0.000    0.00
   8.900    7.02    0.02    0.65   0.000   0.200   0.000    0.00
   8.950    6.84   -1.91    0.92   0.000   0.200   0.000    0.00
   9.000    7.26   -5.78    1.15   0.000   0.200   0.000    0.00
   9.050    6.79   -4.57    1.13   0.000   0.200   0.000    0.00
   9.100    6.60   -2.69    0.92   0.000   0.200   0.000    0.00
   9.150    6.59   -0.22    0.48   0.000   0.200   0.000    0.00
   9.200    6.93   -3.51    0.54   0.000   0.200   0.000    0.00
   9.250    7.24   -6.06    0.20   0.000   0.200   0.000    0.00
   9.300    6.37   -8.53    0.10   0.000   0.200   0.000    0.00
   9.350    6.44   -7.11    0.54   0.000   0.200   0.000    0.00
   9.400    6.51   -8.45    0.42   0.000   0.200   0.000    0.00
   9.450    6.58   -6.76    0.26   0.000   0.200   0.000    0.00
   9.500    6.70   -8.97    0.25   0.000   0.200   0.000    0.00
   9.550    6.34   -9.24   -0.67   0.000   0.200   0.000    0.00
   9.600    6.22  -11.43   -0.29   0.000   0.200   0.000    0.00
   9.650    6.39   -7.36   -0.28   0.000   0.200   0.000    0.00
   9.700    5.87   -2.96    0.20   0.000   0.200   0.000    0.00
   9.750    5.43   -5.85    0.29   0.000   0.200   0.000    0.00
   9.800    5.34   -9.91    0.62   0.000   0.200   0.000    0.00
   9.850    5.59   -7.54   -0.11   0.000   0.200   0.000    0.00
   9.900    6.02   -8.23   -0.53   0.000   0.200   0.000    0.00
   9.950    6.11   -8.06   -0.69   0.000   0.200   0.000    0.00
  10.000    6.03  -12.26   -0.78   0.000   0.200   0.000    0.00
  10.050    5.18  -16.02   -0.21   0.000   0.200   0.000    0.00
  10.100    5.22  -20.29    0.11   0.000   0.200   0.000    0.00
  10.150    5.13  -24.63   -0.33   0.000   0.200   0.000    0.00
  10.200    5.57  -24.20   -0.21   0.000   0.200   0.000    0.00
  10.250    5.61  -19.99   -0.73   0.000   0.200   0.000    0.00
  10.300    5.95  -19.82   -0.16   0.000   0.200   0.000    0.00
  10.350    5.91  -18.43   -0.11   0.000   0.200   0.000    0.00
  10.400    6.27  -17.86    0.02   0.000   0.200   0.000    0.00
  10.450    6.61  -16.58   -0.02   0.000   0.200   0.000    0.00
  10.500    6.44  -19.71   -0.41   0.000   0.200   0.000    0.00
  10.550    6.29  -31.46   -0.43   0.000   0.200   0.000    0.00
  10.600    6.00  -34.69   -0.26   0.000   0.200   0.000    0.00
  10.650    6.01  -32.29   -0.83   0.000   0.200   0.000    0.00
  10.700    6.42  -35.44   -1.16   0.000   0.200   0.000    0.00
  10.750    6.67  -36.94   -1.16   0.000   0.200   0.000    0.00
  10.800    6.82  -34.20   -1.51   0.000   0.200   0.000    0.00
  10.850    6.25  -31.61   -1.10   0.000   0.200   0.000    0.00
  10.900    6.24  -31.62   -1.30   0.000   0.200   0.000    0.00
  10.950    6.89  -34.87   -0.80   0.000   0.200   0.000    0.00
  11.000    6.95  -33.42   -0.50   0.000   0.200   0.000    0.00
  11.050    6.77  -34.95   -0.04   0.000   0.200   0.000    0.00
  11.100    7.18  -31.45   -0.01   0.000   0.200   0.000    0.00
  11.150    6.19  -28.10   -0.13   0.000   0.200   0.000    0.00
  11.200    6.67  -31.96    0.27   0.000   0.200   0.000    0.00
  11.250    6.54  -29.29   -0.38   0.000   0.200   0.000    0.00
  11.300    6.52  -31.64   -0.21   0.000   0.200   0.000    0.00
  11.350    6.25  -29.33    0.19   0.000   0.200   0.000    0.00
  11.400    5.69  -30.87    0.10   0.000   0.200   0.000    0.00
  11.450    5.54  -32.94    0.30   0.000   0.200   0.000    0.00
  11.500    5.46  -31.20    0.27   0.000   0.200   0.000    0.00
  11.550    5.23  -23.85   -0.45   0.000   0.200   0.000    0.00
  11.600    5.27  -25.17   -0.72   0.000   0.200   0.000    0.00
  11.650    5.34  -23.26   -1.52   0.000   0.200   0.000    0.00
  11.700    5.58  -20.49   -1.31   0.000   0.200   0.000    0.00
  11.750    5.44  -20.59   -1.27   0.000   0.200   0.000    0.00
  11.800    5.36  -21.82   -1.32   0.000   0.200   0.000    0.00
  11.850    5.65  -23.57   -1.54   0.000   0.200   0.000    0.00
  11.900    5.56  -22.19   -1.33   0.000   0.200   0.000    0.00
  11.950    5.40  -27.20   -1.51   0.000   0.200   0.000    0.00
  12.000    5.65  -28.70   -1.98   0.000   0.200   0.000    0.00
  12.050    5.53  -28.86   -2.25   0.000   0.200   0.000    0.00
  12.100    5.45  -31.88   -2.19   0.000   0.200   0.000    0.00
  12.150    5.74  -27.24   -1.95   0.000   0.200   0.000    0.00
  12.200    5.47  -25.05   -1.54   0.000   0.200   0.000    0.00
  12.250    5.26  -22.75   -1.76   0.000   0.200   0.000    0.00
  12.300    4.91  -26.45   -2.21   0.000   0.200   0.000    0.00
  12.350    5.00  -21.00   -2.06   0.000   0.200   0.000    0.00
  12.400    5.46  -27.12   -1.73   0.000   0.200   0.000    0.00
  12.450    4.93  -31.37   -1.55   0.000   0.200   0.000    0.00
  12.500    5.40  -31.03   -1.43   0.000   0.200   0.000    0.00
  12.550    5.60  -28.18   -1.18   0.000   0.200   0.000    0.00
  12.600    5.53  -25.75   -0.27   0.000   0.200   0.000    0.00
  12.650    5.10  -22.33   -0.42   0.000   0.200   0.000    0.00
  12.700    5.09  -22.32   -0.59   0.000   0.200   0.000    0.00
  12.750    5.40  -19.58   -0.47   0.000   0.200   0.000    0.00
  12.800    5.37  -21.29   -0.24   0.000   0.200   0.000    0.00
  12.850    5.54  -24.94   -0.20   0.000   0.200   0.000    0.00
  12.900    5.07  -20.92   -0.13   0.000   0.200   0.000    0.00
  12.950    5.61  -24.13   -0.22   0.000   0.200   0.000    0.00
  13.000    5.99  -27.78    0.15   0.000   0.200   0.000    0.00
  13.050    5.33  -31.73    0.28   0.000   0.200   0.000    0.00
  13.100    5.38  -25.53    0.54   0.000   0.200   0.000    0.00
  13.150    4.81  -19.25    0.55   0.000   0.200   0.000    0.00
  13.200    4.60  -18.02    0.58   0.000   0.200   0.000    0.00
  13.250    4.05  -22.64    0.66   0.000   0.200   0.000    0.00
  13.300    4.43  -20.14   -0.09   0.000   0.200   0.000    0.00
  13.350    4.32  -22.61    0.23   0.000   0.200   0.000    0.00
  13.400    4.42  -26.33   -0.08   0.000   0.200   0.000    0.00
  13.450    4.67  -29.73   -0.16   0.000   0.200   0.000    0.00
  13.500    4.99  -27.78   -0.27   0.000   0.200   0.000    0.00
  13.550    5.03  -30.64   -0.48   0.000   0.200   0.000    0.00
  13.600    5.58  -23.68   -0.75   0.000   0.200   0.000    0.00
  13.650    5.53  -25.74   -0.29   0.000   0.200   0.000    0.00
  13.700    4.93  -23.91    0.10   0.000   0.200   0.000    0.00
  13.750    5.02  -22.12    0.27   0.000   0.200   0.000    0.00
  13.800    4.50  -19.74    0.37   0.000   0.200   0.000    0.00
  13.850    4.29  -22.79    0.53   0.000   0.200   0.000    0.00
  13.900    4.45  -20.78   -0.24   0.000   0.200   0.000    0.00
  13.950    4.62  -16.92    0.14   0.000   0.200   0.000    0.00
  14.000    4.84   -7.29    0.10   0.000   0.200   0.000    0.00
  14.050    3.91    3.36    0.61   0.000   0.200   0.000    0.00
  14.100    4.02    2.98   -0.12   0.000   0.200   0.000    0.00
  14.150    4.08   -0.71    0.20   0.000   0.200   0.000    0.00
  14.200    4.35   -7.50    0.49   0.000   0.200   0.000    0.00
  14.250    4.38  -10.14   -0.13   0.000   0.200   0.000    0.00
  14.300    4.57  -10.12   -0.68   0.000   0.200   0.000    0.00
  14.350    4.60   -5.97   -0.64   0.000   0.200   0.000    0.00
  14.400    4.27   -0.46   -0.36   0.000   0.200   0.000    0.00
  14.450    4.77    5.00    0.12   0.000   0.200   0.000    0.00
  14.500    4.54    2.89   -0.14   0.000   0.200   0.000    0.00
  14.550    4.44    2.82   -0.22   0.000   0.200   0.000    0.00
  14.600    3.96    0.17   -0.36   0.000   0.200   0.000    0.00
  14.650    3.96   -6.42    0.18   0.000   0.200   0.000    0.00
  14.700    4.62   -5.57    0.48   0.000   0.200   0.000    0.00
  14.750    4.08   -6.94    0.25   0.000   0.200   0.000    0.00
  14.800    3.55   -2.70    0.30   0.000   0.200   0.000    0.00
  14.850    3.11    7.55    0.30   0.000   0.200   0.000    0.00
  14.900    3.05   10.48    0.31   0.000   0.200   0.000    0.00
  14.950    2.77   11.45   -0.13   0.000   0.200   0.000    0.00
  15.000    2.73   10.56   -0.24   0.000   0.200   0.000    0.00
  15.050    2.63    3.90   -0.20   0.000   0.200   0.000    0.00
  15.100    3.20   -5.12    0.10   0.000   0.200   0.000    0.00
  15.150    3.37   -4.01   -0.26   0.000   0.200   0.000    0.00
  15.200    3.23   -3.32    0.43   0.000   0.200   0.000    0.00
  15.250    2.91    3.14    1.24   0.000   0.200   0.000    0.00
  15.300    3.03   -3.47    0.97   0.000   0.200   0.000    0.00
  15.350    3.38   -4.96    0.88   0.000   0.200   0.000    0.00
  15.400    2.94    0.68    0.92   0.000   0.200   0.000    0.00
  15.450    3.03    2.27    0.79   0.000   0.200   0.000    0.00
  15.500    3.42    6.02    0.53   0.000   0.200   0.000    0.00
  15.550    3.30   10.06    0.31   0.000   0.200   0.000    0.00
  15.600    3.37    9.39    0.03   0.000   0.200   0.000    0.00
  15.650    3.34    4.85    0.20   0.000   0.200   0.000    0.00
  15.700    3.57    4.35    0.57   0.000   0.200   0.000    0.00
  15.750    4.32   11.46    1.12   0.000   0.200   0.000    0.00
  15.800    4.38   10.87    0.66   0.000   0.200   0.000    0.00
  15.850    4.71    6.81    0.18   0.000   0.200   0.000    0.00
  15.900    4.44    3.86    0.09   0.000   0.200   0.000    0.00
  15.950    4.13    1.19    0.07   0.000   0.200   0.000    0.00
  16.000    3.94    8.42   -0.07   0.000   0.200   0.000    0.00
  16.050    3.45    3.75    0.22   0.000   0.200   0.000    0.00
  16.100    3.81    2.35    0.50   0.000   0.200   0.000    0.00
  16.150    3.64    6.64    0.80   0.000   0.200   0.000    0.00
  16.200    3.15    9.57    0.17   0.000   0.200   0.000    0.00
  16.250    3.14   -2.06   -0.17   0.000   0.200   0.000    0.00
  16.300    3.27    0.00    0.33   0.000   0.200   0.000    0.00
  16.350    3.07   -0.03    0.19   0.000   0.200   0.000    0.00
  16.400    2.87    0.85   -0.16   0.000   0.200   0.000    0.00
  16.450    2.97   -0.12   -0.55   0.000   0.200   0.000    0.00
  16.500    2.90   13.11   -0.37   0.000   0.200   0.000    0.00
  16.550    3.29    4.95   -0.81   0.000   0.200   0.000    0.00
  16.600    3.54   -2.83   -0.70   0.000   0.200   0.000    0.00
  16.650    3.79    3.21    0.05   0.000   0.200   0.000    0.00
  16.700    3.67    5.98   -0.64   0.000   0.200   0.000    0.00
  16.750    3.74   13.15   -0.30   0.000   0.200   0.000    0.00
  16.800    3.67    5.14   -0.35   0.000   0.200   0.000    0.00
  16.850    3.97    8.74   -0.38   0.000   0.200   0.000    0.00
  16.900    3.93    6.16    0.17   0.000   0.200   0.000    0.00
  16.950    4.06   14.92    0.94   0.000   0.200   0.000    0.00
  17.000    4.20   14.02    0.51   0.000   0.200   0.000    0.00
  17.050    4.61   11.65    0.22   0.000   0.200   0.000    0.00
  17.100    4.78    3.16    0.05   0.000   0.200   0.000    0.00
  17.150    4.79    2.57   -0.27   0.000   0.200   0.000    0.00
  17.200    4.64    8.84   -0.25   0.000   0.200   0.000    0.00
  17.250    4.75    6.95   -0.15   0.000   0.200   0.000    0.00
  17.300    4.66   13.34    0.20   0.000   0.200   0.000    0.00
  17.350    4.02    8.86    0.48   0.000   0.200   0.000    0.00
  17.400    4.16    2.35   -0.23   0.000   0.200   0.000    0.00
  17.450    4.30   -3.47   -0.26   0.000   0.200   0.000    0.00
  17.500    4.67   -8.46    0.12   0.000   0.200   0.000    0.00
  17.550    4.60   -4.99   -0.17   0.000   0.200   0.000    0.00
  17.600    5.06   -2.14   -0.19   0.000   0.200   0.000    0.00
  17.650    4.92   -2.57   -0.79   0.000   0.200   0.000    0.00
  17.700    4.95   -1.12   -1.90   0.000   0.200   0.000    0.00
  17.750    5.21  -11.53   -1.88   0.000   0.200   0.000    0.00
  17.800    4.62   -9.01   -1.54   0.000   0.200   0.000    0.00
  17.850    4.85   -7.93   -2.11   0.000   0.200   0.000    0.00
  17.900    4.56   -7.89   -2.20   0.000   0.200   0.000    0.00
  17.950    4.74   -4.14   -1.87   0.000   0.200   0.000    0.00
  18.000    4.34   -5.80   -1.44   0.000   0.200   0.000    0.00
  18.050    4.36   -4.62   -1.56   0.000   0.200   0.000    0.00
  18.100    4.59  -10.43   -1.20   0.000   0.200   0.000    0.00
  18.150    4.94  -11.22   -1.40   0.000   0.200   0.000    0.00
  18.200    5.24   -9.36   -1.11   0.000   0.200   0.000    0.00
  18.250    4.96  -13.88   -0.95   0.000   0.200   0.000    0.00
  18.300    5.04  -17.99   -0.54   0.000   0.200   0.000    0.00
  18.350    5.28  -14.48   -1.00   0.000   0.200   0.000    0.00
  18.400    5.02   -5.81   -1.51   0.000   0.200   0.000    0.00
  18.450    4.36   -4.25   -1.82   0.000   0.200   0.000    0.00
  18.500    4.43   -5.38   -1.81   0.000   0.200   0.000    0.00
  18.550    4.63  -11.32   -1.24   0.000   0.200   0.000    0.00
  18.600    4.66  -11.20   -1.49   0.000   0.200   0.000    0.00
  18.650    4.41   -4.54   -2.12   0.000   0.200   0.000    0.00
  18.700    4.39   -9.63   -2.04   0.000   0.200   0.000    0.00
  18.750    4.01  -18.91   -1.92   0.000   0.200   0.000    0.00
  18.800    3.47  -14.00   -2.09   0.000   0.200   0.000    0.00
  18.850    3.57   -8.67   -2.19   0.000   0.200   0.000    0.00
  18.900    3.44   -9.44   -3.02   0.000   0.200   0.000    0.00
  18.950    3.44  -11.93   -2.56   0.000   0.200   0.000    0.00
  19.000    3.42  -15.08   -2.09   0.000   0.200   0.000    0.00
  19.050    3.08  -12.88   -1.89   0.000   0.200   0.000    0.00
  19.100    3.93   -8.05   -1.94   0.000   0.200   0.000    0.00
  19.150    4.14   -9.15   -1.94   0.000   0.200   0.000    0.00
  19.200    4.30  -16.90   -1.22   0.000   0.200   0.000    0.00
  19.250    4.05  -12.67   -1.74   0.000   0.200   0.000    0.00
  19.300    3.46  -12.22   -2.34   0.000   0.200   0.000    0.00
  19.350    3.03   -5.58   -2.76   0.000   0.200   0.000    0.00
  19.400    3.25  -13.56   -2.71   0.000   0.200   0.000    0.00
  19.450    3.17   -4.03   -3.30   0.000   0.200   0.000    0.00
  19.500    3.35    0.29   -3.05   0.000   0.200   0.000    0.00
  19.550    3.82    5.10   -2.55   0.000   0.200   0.000    0.00
  19.600    3.21    6.59   -2.94   0.000   0.200   0.000    0.00
  19.650    3.10    4.15   -3.26   0.000   0.200   0.000    0.00
  19.700    3.02    3.02   -2.64   0.000   0.200   0.000    0.00
  19.750    2.72    5.82   -2.33   0.000   0.200   0.000    0.00
  19.800    3.08   -6.30   -1.89   0.000   0.200   0.000    0.00
  19.850    3.44   -6.00   -2.31   0.000   0.200   0.000    0.00
  19.900    3.75   -3.08   -2.58   0.000   0.200   0.000    0.00
  19.950    3.63   -7.85   -2.63   0.000   0.200   0.000    0.00
  20.000    3.56  -15.88   -1.87   0.000   0.200   0.000    0.00
  20.050    4.03   -6.70   -1.53   0.000   0.200   0.000    0.00
  20.100    3.86   -2.76   -1.72   0.000   0.200   0.000    0.00
  20.150    3.91   -6.83   -2.30   0.000   0.200   0.000    0.00
  20.200    3.32  -13.62   -2.16   0.000   0.200   0.000    0.00
  20.250    3.30  -16.54   -1.63   0.000   0.200   0.000    0.00
  20.300    3.41  -16.16   -1.67   0.000   0.200   0.000    0.00
  20.350    3.38  -14.44   -1.90   0.000   0.200   0.000    0.00
  20.400    3.66  -19.67   -1.87   0.000   0.200   0.000    0.00
  20.450    3.55  -15.30   -1.43   0.000   0.200   0.000    0.00
  20.500    3.21   -7.51   -1.40   0.000   0.200   0.000    0.00
  20.550    3.06  -11.57   -1.28   0.000   0.200   0.000    0.00
  20.600    3.26  -12.85   -1.41   0.000   0.200   0.000    0.00
  20.650    3.53  -18.19   -1.34   0.000   0.200   0.000    0.00
  20.700    3.84  -26.91   -1.17   0.000   0.200   0.000    0.00
  20.750    3.61  -21.17   -1.02   0.000   0.200   0.000    0.00
  20.800    3.85  -30.18   -1.03   0.000   0.200   0.000    0.00
  20.850    3.43  -21.21   -0.47   0.000   0.200   0.000    0.00
  20.900    2.89  -19.86   -0.18   0.000   0.200   0.000    0.00
  20.950    2.97  -34.77   -0.29   0.000   0.200   0.000    0.00
  21.000    2.70  -38.63   -0.30   0.000   0.200   0.000    0.00
  21.050    3.07  -33.80    0.06   0.000   0.200   0.000    0.00
  21.100    3.27  -30.23   -0.06   0.000   0.200   0.000    0.00
  21.150    3.50  -29.85   -0.09   0.000   0.200   0.000    0.00
  21.200    3.29  -33.25   -0.45   0.000   0.200   0.000    0.00
  21.250    3.30  -38.56   -0.60   0.000   0.200   0.000    0.00
  21.300    3.01  -38.51   -1.56   0.000   0.200   0.000    0.00
  21.350    3.25  -44.59   -1.79   0.000   0.200   0.000    0.00
  21.400    3.12  -44.55   -1.76   0.000   0.200   0.000    0.00
  21.450    3.25  -37.07   -1.13   0.000   0.200   0.000    0.00
  21.500    2.83  -45.33   -1.08   0.000   0.200   0.000    0.00
  21.550    2.78  -43.68   -0.79   0.000   0.200   0.000    0.00
  21.600    2.47  -41.30   -1.02   0.000   0.200   0.000    0.00
  21.650    2.59  -43.99   -1.21   0.000   0.200   0.000    0.00
  21.700    2.13  -35.43   -1.21   0.000   0.200   0.000    0.00
  21.750    2.64  -29.37   -1.32   0.000   0.200   0.000    0.00
  21.800    2.82  -29.51   -1.13   0.000   0.200   0.000    0.00
  21.850    2.91  -33.09   -1.08   0.000   0.200   0.000    0.00
  21.900    3.07  -20.53   -1.31   0.000   0.200   0.000    0.00
  21.950    2.86  -21.01   -0.99   0.000   0.200   0.000    0.00
  22.000    2.80  -22.20   -1.06   0.000   0.200   0.000    0.00
  22.050    2.83  -23.07   -0.98   0.000   0.200   0.000    0.00
  22.100    2.50  -22.87   -1.47   0.000   0.200   0.000    0.00
  22.150    3.03  -17.17   -1.11   0.000   0.200   0.000    0.00
  22.200    3.38  -16.01   -1.49   0.000   0.200   0.000    0.00
  22.250    3.34  -24.02   -1.77   0.000   0.200   0.000    0.00
  22.300    3.20  -21.99   -1.70   0.000   0.200   0.000    0.00
  22.350    3.34  -23.21   -1.53   0.000   0.200   0.000    0.00