! This hub-height wind-speed file was generated by TurbSim (v1.06.00, 21-Sep-2012) on 03-Feb-2018 at 23:29:59.
!
! The requested statistics for this data were:
!    Mean Total Wind Speed =   11.000 m/s
!    Turbulence Intensity  =   17.627%
!
!   Time  HorSpd  WndDir  VerSpd  HorShr  VerShr  LnVShr  GstSpd
!  (sec)   (m/s)   (deg)   (m/s)     (-)     (-)     (-)   (m/s)
   0.000   10.19   -9.20   -0.61   0.000   0.200   0.000    0.00
   0.050   10.51   -7.76   -0.46   0.000   0.200   0.000    0.00
   0.100   10.56   -6.13   -0.23   0.000   0.200   0.000    0.00
   0.150   10.39   -5.26   -0.29   0.000   0.200   0.000    0.00
   0.200    9.96   -6.23   -0.91   0.000   0.200   0.000    0.00
   0.250   10.13   -7.59   -0.68   0.000   0.200   0.000    0.00
   0.300   10.22   -8.88   -0.84   0.000   0.200   0.000    0.00
   0.350    9.83   -6.97   -1.22   0.000   0.200   0.000    0.00
   0.400    9.89   -4.37   -0.58   0.000   0.200   0.000    0.00
   0.450    9.95   -3.80   -0.94   0.000   0.200   0.000    0.00
   0.500    9.89   -3.34   -0.94   0.000   0.200   0.000    0.00
   0.550   10.22    1.86   -0.60   0.000   0.200   0.000    0.00
   0.600   10.20   -0.43   -0.75   0.000   0.200   0.000    0.00
   0.650   10.60   -2.43   -0.81   0.000   0.200   0.000    0.00
   0.700   10.29    0.84   -0.54   0.000   0.200   0.000    0.00
   0.750   10.27    5.79   -0.18   0.000   0.200   0.000    0.00
   0.800   10.28    3.21    0.20   0.000   0.200   0.000    0.00
   0.850   10.40    3.02   -0.22   0.000   0.200   0.000    0.00
   0.900   10.49    1.75   -0.31   0.000   0.200   0.000    0.00
   0.950    9.88   -0.40   -0.16   0.000   0.200   0.000    0.00
   1.000    9.53   -2.24   -0.46   0.000   0.200   0.000    0.00
   1.050    9.16   -2.29   -0.12   0.000   0.200   0.000    0.00
   1.100    9.15   -0.77    0.07   0.000   0.200   0.000    0.00
   1.150    9.39    1.02   -0.33   0.000   0.200   0.000    0.00
   1.200    9.46    1.01   -0.13   0.000   0.200   0.000    0.00
   1.250    9.94    3.43    0.15   0.000   0.200   0.000    0.00
   1.300    9.81    3.62    0.87   0.000   0.200   0.000    0.00
   1.350   10.02    2.59    0.48   0.000   0.200   0.000    0.00
   1.400    9.82    4.15    0.37   0.000   0.200   0.000    0.00
   1.450   10.08    3.64    0.59   0.000   0.200   0.000    0.00
   1.500   10.01    2.76    0.76   0.000   0.200   0.000    0.00
   1.550   10.04    3.89    0.41   0.000   0.200   0.000    0.00
   1.600   10.05    1.29    0.03   0.000   0.200   0.000    0.00
   1.650   10.39    2.62   -0.51   0.000   0.200   0.000    0.00
   1.700   10.65    5.16   -0.91   0.000   0.200   0.000    0.00
   1.750   10.81    3.52   -0.59   0.000   0.200   0.000    0.00
   1.800   10.59    4.90    0.08   0.000   0.200   0.000    0.00
   1.850   10.52    4.43   -0.50   0.000   0.200   0.000    0.00
   1.900   11.22    3.85   -0.87   0.000   0.200   0.000    0.00
   1.950   11.42    3.71   -0.53   0.000   0.200   0.000    0.00
   2.000   11.09    6.04   -0.01   0.000   0.200   0.000    0.00
   2.050   11.18    6.86    0.09   0.000   0.200   0.000    0.00
   2.100   11.22    4.81   -0.23   0.000   0.200   0.000    0.00
   2.150   11.50    5.32   -0.42   0.000   0.200   0.000    0.00
   2.200   11.54    1.68   -0.69   0.000   0.200   0.000    0.00
   2.250   11.59    0.92   -0.69   0.000   0.200   0.000    0.00
   2.300   11.49    2.89   -0.70   0.000   0.200   0.000    0.00
   2.350   11.57    1.48   -0.48   0.000   0.200   0.000    0.00
   2.400   11.43    0.92   -0.88   0.000   0.200   0.000    0.00
   2.450   11.57    1.90   -0.58   0.000   0.200   0.000    0.00
   2.500   11.56    1.31   -0.02   0.000   0.200   0.000    0.00
   2.550   11.37    1.32    0.05   0.000   0.200   0.000    0.00
   2.600   11.73   -0.63    0.08   0.000   0.200   0.000    0.00
   2.650   11.55   -1.15   -0.19   0.000   0.200   0.000    0.00
   2.700   11.79   -1.41    0.06   0.000   0.200   0.000    0.00
   2.750   12.31   -0.42    0.41   0.000   0.200   0.000    0.00
   2.800   12.32    2.26    0.69   0.000   0.200   0.000    0.00
   2.850   12.24    1.16    0.25   0.000   0.200   0.000    0.00
   2.900   12.06    1.37    0.09   0.000   0.200   0.000    0.00
   2.950   11.98    2.27   -0.11   0.000   0.200   0.000    0.00
   3.000   12.52    2.65    0.27   0.000   0.200   0.000    0.00
   3.050   12.78    3.13    0.01   0.000   0.200   0.000    0.00
   3.100   12.83    4.38    0.01   0.000   0.200   0.000    0.00
   3.150   12.56    4.00   -0.09   0.000   0.200   0.000    0.00
   3.200   12.23    2.64    0.46   0.000   0.200   0.000    0.00
   3.250   12.36    3.12    0.29   0.000   0.200   0.000    0.00
   3.300   12.74    5.66    0.66   0.000   0.200   0.000    0.00
   3.350   12.35    5.15    0.55   0.000   0.200   0.000    0.00
   3.400   12.62    3.84    1.06   0.000   0.200   0.000    0.00
   3.450   13.07    2.95    0.92   0.000   0.200   0.000    0.00
   3.500   13.10    2.77    0.93   0.000   0.200   0.000    0.00
   3.550   13.25    2.52    0.84   0.000   0.200   0.000    0.00
   3.600   13.55    6.66    1.05   0.000   0.200   0.000    0.00
   3.650   13.74    9.39    0.93   0.000   0.200   0.000    0.00
   3.700   14.06    8.85    0.67   0.000   0.200   0.000    0.00
   3.750   14.00    6.98   -0.06   0.000   0.200   0.000    0.00
   3.800   14.11    5.30   -0.37   0.000   0.200   0.000    0.00
   3.850   14.12    7.57   -0.41   0.000   0.200   0.000    0.00
   3.900   14.32    6.74   -0.14   0.000   0.200   0.000    0.00
   3.950   14.52    7.15   -0.10   0.000   0.200   0.000    0.00
   4.000   14.38    9.28   -0.16   0.000   0.200   0.000    0.00
   4.050   14.51    8.54    0.22   0.000   0.200   0.000    0.00
   4.100   14.66    6.61    0.18   0.000   0.200   0.000    0.00
   4.150   14.32    7.75   -0.06   0.000   0.200   0.000    0.00
   4.200   15.10    5.53   -0.32   0.000   0.200   0.000    0.00
   4.250   14.78    6.22   -0.57   0.000   0.200   0.000    0.00
   4.300   14.20    8.50   -1.09   0.000   0.200   0.000    0.00
   4.350   13.70    8.35   -1.23   0.000   0.200   0.000    0.00
   4.400   13.87    8.26   -1.37   0.000   0.200   0.000    0.00
   4.450   13.90    6.13   -1.29   0.000   0.200   0.000    0.00
   4.500   13.63    6.42   -1.00   0.000   0.200   0.000    0.00
   4.550   13.79    3.73   -1.10   0.000   0.200   0.000    0.00
   4.600   13.46    5.50   -1.74   0.000   0.200   0.000    0.00
   4.650   13.77    7.69   -1.37   0.000   0.200   0.000    0.00
   4.700   13.58    6.91   -0.92   0.000   0.200   0.000    0.00
   4.750   13.85    7.91   -0.96   0.000   0.200   0.000    0.00
   4.800   13.45    4.56   -0.87   0.000   0.200   0.000    0.00
   4.850   13.39    3.49   -0.63   0.000   0.200   0.000    0.00
   4.900   12.92    3.48   -0.94   0.000   0.200   0.000    0.00
   4.950   12.75    1.72   -0.99   0.000   0.200   0.000    0.00
   5.000   13.15    3.27   -0.70   0.000   0.200   0.000    0.00
   5.050   13.40    5.17   -1.06   0.000   0.200   0.000    0.00
   5.100   13.41    4.95   -0.67   0.000   0.200   0.000    0.00
   5.150   13.26    1.58   -0.42   0.000   0.200   0.000    0.00
   5.200   13.15    2.57   -1.03   0.000   0.200   0.000    0.00
   5.250   13.18    3.13   -1.26   0.000   0.200   0.000    0.00
   5.300   12.86    3.09   -0.19   0.000   0.200   0.000    0.00
   5.350   13.10    6.56    0.19   0.000   0.200   0.000    0.00
   5.400   13.13    5.53    0.24   0.000   0.200   0.000    0.00
   5.450   13.86    6.21   -0.24   0.000   0.200   0.000    0.00
   5.500   13.44    6.69    0.16   0.000   0.200   0.000    0.00
   5.550   12.88    6.64    0.21   0.000   0.200   0.000    0.00
   5.600   13.01    7.23   -0.13   0.000   0.200   0.000    0.00
   5.650   13.28    8.02    0.57   0.000   0.200   0.000    0.00
   5.700   13.66    9.84    0.42   0.000   0.200   0.000    0.00
   5.750   13.98   10.83    0.50   0.000   0.200   0.000    0.00
   5.800   14.60   11.35    0.41   0.000   0.200   0.000    0.00
   5.850   14.29   10.69    0.00   0.000   0.200   0.000    0.00
   5.900   14.08    9.62   -0.12   0.000   0.200   0.000    0.00
   5.950   13.65    7.65   -0.16   0.000   0.200   0.000    0.00
   6.000   13.13    9.00   -0.07   0.000   0.200   0.000    0.00
   6.050   13.11   11.29    0.12   0.000   0.200   0.000    0.00
   6.100   13.44   12.65    0.08   0.000   0.200   0.000    0.00
   6.150   13.28   14.39   -0.17   0.000   0.200   0.000    0.00
   6.200   12.96   13.32   -0.27   0.000   0.200   0.000    0.00
   6.250   12.22   10.64   -0.05   0.000   0.200   0.000    0.00
   6.300   12.34   10.90   -0.54   0.000   0.200   0.000    0.00
   6.350   12.89   11.92   -0.02   0.000   0.200   0.000    0.00
   6.400   12.92   11.25   -0.15   0.000   0.200   0.000    0.00
   6.450   13.18    9.57   -0.55   0.000   0.200   0.000    0.00
   6.500   13.29   10.40   -0.60   0.000   0.200   0.000    0.00
   6.550   13.36   10.06   -0.98   0.000   0.200   0.000    0.00
   6.600   13.06    8.51   -0.80   0.000   0.200   0.000    0.00
   6.650   13.07   10.11   -0.33   0.000   0.200   0.000    0.00
   6.700   13.52    8.46   -0.12   0.000   0.200   0.000    0.00
   6.750   13.56    7.30   -0.54   0.000   0.200   0.000    0.00
   6.800   13.60    7.53   -0.86   0.000   0.200   0.000    0.00
   6.850   13.13    5.80   -0.85   0.000   0.200   0.000    0.00
   6.900   13.64    7.79   -0.70   0.000   0.200   0.000    0.00
   6.950   13.77    7.21   -0.46   0.000   0.200   0.000    0.00
   7.000   13.61    4.23   -0.69   0.000   0.200   0.000    0.00
   7.050   13.85    4.26   -0.68   0.000   0.200   0.000    0.00
   7.100   14.66    7.06   -0.47   0.000   0.200   0.000    0.00
   7.150   14.68    8.04   -0.31   0.000   0.200   0.000    0.00
   7.200   14.28    6.43    0.22   0.000   0.200   0.000    0.00
   7.250   14.22    5.73   -0.17   0.000   0.200   0.000    0.00
   7.300   14.51    5.43   -0.38   0.000   0.200   0.000    0.00
   7.350   14.83    5.67   -0.28   0.000   0.200   0.000    0.00
   7.400   14.51    4.57    0.19   0.000   0.200   0.000    0.00
   7.450   14.11    4.39   -0.08   0.000   0.200   0.000    0.00
   7.500   14.06    7.05   -0.12   0.000   0.200   0.000    0.00
   7.550   14.06    4.79   -0.11   0.000   0.200   0.000    0.00
   7.600   14.38    3.97   -0.25   0.000   0.200   0.000    0.00
   7.650   14.18    3.60   -0.41   0.000   0.200   0.000    0.00
   7.700   13.77    3.42   -0.11   0.000   0.200   0.000    0.00
   7.750   14.28    3.93   -0.49   0.000   0.200   0.000    0.00
   7.800   14.88    3.42    0.01   0.000   0.200   0.000    0.00
   7.850   14.83    2.28    0.65   0.000   0.200   0.000    0.00
   7.900   14.29    2.11    0.05   0.000   0.200   0.000    0.00
   7.950   14.37    2.35    0.31   0.000   0.200   0.000    0.00
   8.000   14.52    3.01    0.36   0.000   0.200   0.000    0.00
   8.050   14.48    3.16    0.08   0.000   0.200   0.000    0.00
   8.100   14.32    1.67   -0.02   0.000   0.200   0.000    0.00
   8.150   14.38   -2.09    0.06   0.000   0.200   0.000    0.00
   8.200   14.42   -0.92   -0.01   0.000   0.200   0.000    0.00
   8.250   14.88    0.79    0.61   0.000   0.200   0.000    0.00
   8.300   14.66    1.30    0.52   0.000   0.200   0.000    0.00
   8.350   14.58    2.53   -0.16   0.000   0.200   0.000    0.00
   8.400   13.96    4.24   -0.29   0.000   0.200   0.000    0.00
   8.450   13.65    7.64   -0.29   0.000   0.200   0.000    0.00
   8.500   13.15    8.44    0.01   0.000   0.200   0.000    0.00
   8.550   13.03   10.13   -0.29   0.000   0.200   0.000    0.00
   8.600   13.07   10.69   -0.74   0.000   0.200   0.000    0.00
   8.650   13.25    9.64   -0.93   0.000   0.200   0.000    0.00
   8.700   12.94    8.70   -0.54   0.000   0.200   0.000    0.00
   8.750   13.02    8.24   -0.21   0.000   0.200   0.000    0.00
   8.800   13.08    5.67    0.26   0.000   0.200   0.000    0.00
   8.850   13.21    5.46   -0.05   0.000   0.200   0.000    0.00
   8.900   13.16    3.48   -0.09   0.000   0.200   0.000    0.00
   8.950   13.12    2.92   -0.13   0.000   0.200   0.000    0.00
   9.000   13.61    1.90    0.35   0.000   0.200   0.000    0.00
   9.050   13.73    2.01    0.78   0.000   0.200   0.000    0.00
   9.100   13.95    0.05    0.02   0.000   0.200   0.000    0.00
   9.150   13.82    0.21   -0.22   0.000   0.200   0.000    0.00
   9.200   13.78    0.24   -0.71   0.000   0.200   0.000    0.00
   9.250   13.54    1.75   -0.89   0.000   0.200   0.000    0.00
   9.300   13.56    3.17   -0.51   0.000   0.200   0.000    0.00
   9.350   13.96    3.00   -0.32   0.000   0.200   0.000    0.00
   9.400   14.00    3.24   -0.50   0.000   0.200   0.000    0.00
   9.450   14.41    3.10   -0.32   0.000   0.200   0.000    0.00
   9.500   13.94    2.51   -0.38   0.000   0.200   0.000    0.00
   9.550   13.73    2.92   -0.06   0.000   0.200   0.000    0.00
   9.600   13.93    2.59   -0.55   0.000   0.200   0.000    0.00
   9.650   14.27    2.00   -0.81   0.000   0.200   0.000    0.00
   9.700   14.27    3.83   -1.01   0.000   0.200   0.000    0.00
   9.750   13.99    2.74   -1.31   0.000   0.200   0.000    0.00
   9.800   14.16    2.73   -1.10   0.000   0.200   0.000    0.00
   9.850   14.15    4.73   -1.51   0.000   0.200   0.000    0.00
   9.900   14.07    4.75   -1.82   0.000   0.200   0.000    0.00
   9.950   14.22    5.59   -1.42   0.000   0.200   0.000    0.00
  10.000   14.02    6.80   -1.36   0.000   0.200   0.000    0.00
  10.050   13.66    9.03   -1.11   0.000   0.200   0.000    0.00
  10.100   13.61    6.91   -1.06   0.000   0.200   0.000    0.00
  10.150   13.49    5.93   -1.40   0.000   0.200   0.000    0.00
  10.200   13.55    5.49   -1.15   0.000   0.200   0.000    0.00
  10.250   14.14    4.73   -1.19   0.000   0.200   0.000    0.00
  10.300   13.78    6.79   -0.85   0.000   0.200   0.000    0.00
  10.350   13.74    5.42   -0.54   0.000   0.200   0.000    0.00
  10.400   13.77    2.99   -0.72   0.000   0.200   0.000    0.00
  10.450   13.80   -0.49   -1.11   0.000   0.200   0.000    0.00
  10.500   13.85   -0.27   -0.72   0.000   0.200   0.000    0.00
  10.550   13.48    0.78   -1.10   0.000   0.200   0.000    0.00
  10.600   13.76    1.94   -1.24   0.000   0.200   0.000    0.00
  10.650   14.24    2.88   -1.49   0.000   0.200   0.000    0.00
  10.700   14.14    0.90   -1.34   0.000   0.200   0.000    0.00
  10.750   14.48    1.94   -1.08   0.000   0.200   0.000    0.00
  10.800   14.62    1.55   -0.79   0.000   0.200   0.000    0.00
  10.850   14.71    0.87   -0.65   0.000   0.200   0.000    0.00
  10.900   14.49    0.55   -0.61   0.000   0.200   0.000    0.00
  10.950   14.31    1.11   -0.49   0.000   0.200   0.000    0.00
  11.000   13.77    0.12   -0.77   0.000   0.200   0.000    0.00
  11.050   14.01    0.42   -1.07   0.000   0.200   0.000    0.00
  11.100   13.22    2.84   -1.37   0.000   0.200   0.000    0.00
  11.150   13.29    3.56   -1.32   0.000   0.200   0.000    0.00
  11.200   13.51    6.68   -1.08   0.000   0.200   0.000    0.00
  11.250   14.10    7.25   -0.96   0.000   0.200   0.000    0.00
  11.300   14.04    6.19   -1.17   0.000   0.200   0.000    0.00
  11.350   13.75    6.25   -1.20   0.000   0.200   0.000    0.00
  11.400   13.69    4.65   -1.12   0.000   0.200   0.000    0.00
  11.450   13.51    3.19   -0.85   0.000   0.200   0.000    0.00
  11.500   13.69    3.31   -0.88   0.000   0.200   0.000    0.00
  11.550   13.63    2.72   -0.80   0.000   0.200   0.000    0.00
  11.600   13.79    5.48   -0.31   0.000   0.200   0.000    0.00
  11.650   13.81    3.15   -0.33   0.000   0.200   0.000    0.00
  11.700   14.23    3.32   -0.51   0.000   0.200   0.000    0.00
  11.750   13.83    2.27   -0.86   0.000   0.200   0.000    0.00
  11.800   14.04    2.05   -0.47   0.000   0.200   0.000    0.00
  11.850   13.55    0.00   -0.87   0.000   0.200   0.000    0.00
  11.900   13.64    0.72   -1.01   0.000   0.200   0.000    0.00
  11.950   14.40    0.55   -0.72   0.000   0.200   0.000    0.00
  12.000   14.75    0.51   -0.18   0.000   0.200   0.000    0.00
  12.050   14.88   -0.38    0.15   0.000   0.200   0.000    0.00
  12.100   14.39    1.82   -0.03   0.000   0.200   0.000    0.00
  12.150   14.54    1.99   -0.06   0.000   0.200   0.000    0.00
  12.200   14.62    0.94    0.34   0.000   0.200   0.000    0.00
  12.250   14.60    1.11   -0.17   0.000   0.200   0.000    0.00
  12.300   14.52    0.09   -0.41   0.000   0.200   0.000    0.00
  12.350   14.00    2.07   -0.10   0.000   0.200   0.000    0.00
  12.400   14.32    2.52   -0.09   0.000   0.200   0.000    0.00
  12.450   14.10    2.66   -0.51   0.000   0.200   0.000    0.00
  12.500   14.22    3.12   -0.28   0.000   0.200   0.000    0.00
  12.550   14.25    4.70   -0.08   0.000   0.200   0.000    0.00
  12.600   14.13    4.51    0.02   0.000   0.200   0.000    0.00
  12.650   13.98    3.93   -0.09   0.000   0.200   0.000    0.00
  12.700   13.86    3.59   -0.80   0.000   0.200   0.000    0.00
  12.750   13.63    2.94   -1.06   0.000   0.200   0.000    0.00
  12.800   13.60    4.12   -0.37   0.000   0.200   0.000    0.00
  12.850   13.24    5.18   -0.39   0.000   0.200   0.000    0.00
  12.900   13.32    2.29   -0.54   0.000   0.200   0.000    0.00
  12.950   13.71    5.06   -0.36   0.000   0.200   0.000    0.00
  13.000   13.43    2.91   -0.16   0.000   0.200   0.000    0.00
  13.050   13.28    0.45   -0.98   0.000   0.200   0.000    0.00
  13.100   13.34   -1.35   -0.64   0.000   0.200   0.000    0.00
  13.150   13.68    1.64   -0.44   0.000   0.200   0.000    0.00
  13.200   13.69    0.24   -0.08   0.000   0.200   0.000    0.00
  13.250   13.55    0.98   -0.69   0.000   0.200   0.000    0.00
  13.300   13.89   -0.05   -0.90   0.000   0.200   0.000    0.00
  13.350   14.14    0.15   -0.84   0.000   0.200   0.000    0.00
  13.400   13.59   -0.73   -1.08   0.000   0.200   0.000    0.00
  13.450   13.76   -1.54   -0.22   0.000   0.200   0.000    0.00
  13.500   13.42    0.79   -0.21   0.000   0.200   0.000    0.00
  13.550   13.34    0.03   -0.07   0.000   0.200   0.000    0.00
  13.600   12.60    1.38   -0.29   0.000   0.200   0.000    0.00
  13.650   12.38    2.19   -0.21   0.000   0.200   0.000    0.00
  13.700   12.56   -1.56    0.23   0.000   0.200   0.000    0.00
  13.750   12.48   -3.45    0.53   0.000   0.200   0.000    0.00
  13.800   12.44   -2.66    0.34   0.000   0.200   0.000    0.00
  13.850   12.54   -2.20    0.02   0.000   0.200   0.000    0.00
  13.900   12.23   -3.15    0.16   0.000   0.200   0.000    0.00
  13.950   12.28   -3.99    0.20   0.000   0.200   0.000    0.00
  14.000   12.38   -2.22    0.22   0.000   0.200   0.000    0.00
  14.050   12.64   -3.11    0.07   0.000   0.200   0.000    0.00
  14.100   12.51   -4.34    0.24   0.000   0.200   0.000    0.00
  14.150   12.41   -1.95    0.33   0.000   0.200   0.000    0.00
  14.200   12.54   -1.53    0.45   0.000   0.200   0.000    0.00
  14.250   12.80   -0.59    0.25   0.000   0.200   0.000    0.00
  14.300   12.75    1.25   -0.10   0.000   0.200   0.000    0.00
  14.350   12.21    0.63   -0.08   0.000   0.200   0.000    0.00
  14.400   11.80   -3.60    0.14   0.000   0.200   0.000    0.00
  14.450   11.82   -1.45    0.70   0.000   0.200   0.000    0.00
  14.500   11.34   -0.76   -0.03   0.000   0.200   0.000    0.00
  14.550   11.29   -0.08    0.02   0.000   0.200   0.000    0.00
  14.600   11.15   -0.62   -0.11   0.000   0.200   0.000    0.00
  14.650   11.25    3.43   -0.46   0.000   0.200   0.000    0.00
  14.700   11.49    4.93   -0.90   0.000   0.200   0.000    0.00
  14.750   11.18    3.46   -0.96   0.000   0.200   0.000    0.00
  14.800   11.58    0.81   -1.46   0.000   0.200   0.000    0.00
  14.850   11.09    1.29   -1.11   0.000   0.200   0.000    0.00
  14.900   11.40    1.12   -0.95   0.000   0.200   0.000    0.00
  14.950   11.73   -0.86   -0.97   0.000   0.200   0.000    0.00
  15.000   11.15   -3.57   -0.66   0.000   0.200   0.000    0.00
  15.050   11.18   -4.23   -1.02   0.000   0.200   0.000    0.00
  15.100   11.28   -4.87   -0.91   0.000   0.200   0.000    0.00
  15.150   11.46   -2.92   -0.75   0.000   0.200   0.000    0.00
  15.200   11.59   -0.96   -0.56   0.000   0.200   0.000    0.00
  15.250   11.42   -2.75   -0.49   0.000   0.200   0.000    0.00
  15.300   11.50   -2.97   -0.51   0.000   0.200   0.000    0.00
  15.350   11.44   -1.47   -0.14   0.000   0.200   0.000    0.00
  15.400   11.39   -1.29   -0.01   0.000   0.200   0.000    0.00
  15.450   10.90   -0.17   -0.28   0.000   0.200   0.000    0.00
  15.500   10.90   -0.18   -0.13   0.000   0.200   0.000    0.00
  15.550   10.95   -3.75   -0.27   0.000   0.200   0.000    0.00
  15.600   11.11   -5.29   -0.54   0.000   0.200   0.000    0.00
  15.650   11.70   -3.38   -0.20   0.000   0.200   0.000    0.00
  15.700   12.07   -5.33    0.39   0.000   0.200   0.000    0.00
  15.750   12.29   -6.51    0.50   0.000   0.200   0.000    0.00
  15.800   11.90   -4.21    0.27   0.000   0.200   0.000    0.00
  15.850   11.89   -1.41    0.19   0.000   0.200   0.000    0.00
  15.900   11.87   -0.59    0.38   0.000   0.200   0.000    0.00
  15.950   11.87   -1.73    0.62   0.000   0.200   0.000    0.00
  16.000   11.81   -2.99    0.80   0.000   0.200   0.000    0.00
  16.050   11.87   -1.79    0.81   0.000   0.200   0.000    0.00
  16.100   11.91   -3.75    0.62   0.000   0.200   0.000    0.00
  16.150   11.89   -4.08    0.26   0.000   0.200   0.000    0.00
  16.200   12.47   -4.01    0.49   0.000   0.200   0.000    0.00
  16.250   12.10   -2.19    0.43   0.000   0.200   0.000    0.00
  16.300   11.78   -0.58    0.28   0.000   0.200   0.000    0.00
  16.350   11.73   -2.87    0.58   0.000   0.200   0.000    0.00
  16.400   12.14   -0.89    0.76   0.000   0.200   0.000    0.00
  16.450   12.17   -0.77    0.81   0.000   0.200   0.000    0.00
  16.500   12.31    1.34    0.77   0.000   0.200   0.000    0.00
  16.550   12.41    4.02    0.41   0.000   0.200   0.000    0.00
  16.600   12.81    5.41    0.81   0.000   0.200   0.000    0.00
  16.650   13.08    3.40    0.64   0.000   0.200   0.000    0.00
  16.700   12.62    5.35    0.61   0.000   0.200   0.000    0.00
  16.750   12.47    4.01   -0.22   0.000   0.200   0.000    0.00
  16.800   12.71    6.38   -0.29   0.000   0.200   0.000    0.00
  16.850   12.62    5.74   -0.45   0.000   0.200   0.000    0.00
  16.900   12.29    5.49   -0.33   0.000   0.200   0.000    0.00
  16.950   12.13    5.26   -0.44   0.000   0.200   0.000    0.00
  17.000   12.10    4.33   -0.46   0.000   0.200   0.000    0.00
  17.050   12.27    4.89   -0.30   0.000   0.200   0.000    0.00
  17.100   12.30    3.91   -0.75   0.000   0.200   0.000    0.00
  17.150   12.42    3.15    0.19   0.000   0.200   0.000    0.00
  17.200   12.34    5.52    0.41   0.000   0.200   0.000    0.00
  17.250   11.99    4.13   -0.57   0.000   0.200   0.000    0.00
  17.300   12.12    1.07   -0.45   0.000   0.200   0.000    0.00
  17.350   12.28    1.86   -0.55   0.000   0.200   0.000    0.00
  17.400   12.50    0.06   -0.48   0.000   0.200   0.000    0.00
  17.450   12.13   -0.05   -0.57   0.000   0.200   0.000    0.00
  17.500   11.89    0.43    0.11   0.000   0.200   0.000    0.00
  17.550   11.97   -0.93    0.45   0.000   0.200   0.000    0.00
  17.600   12.19    0.18    0.30   0.000   0.200   0.000    0.00
  17.650   12.73    1.22    0.21   0.000   0.200   0.000    0.00
  17.700   12.83    2.49    0.15   0.000   0.200   0.000    0.00
  17.750   12.63    2.28    0.09   0.000   0.200   0.000    0.00
  17.800   13.05    4.04    0.16   0.000   0.200   0.000    0.00
  17.850   13.45    2.54    0.33   0.000   0.200   0.000    0.00
  17.900   13.20   -0.06    0.43   0.000   0.200   0.000    0.00
  17.950   13.54   -1.70    0.39   0.000   0.200   0.000    0.00
  18.000   13.54   -0.83    0.16   0.000   0.200   0.000    0.00
  18.050   13.31   -3.36   -0.17   0.000   0.200   0.000    0.00
  18.100   12.66   -4.78   -0.61   0.000   0.200   0.000    0.00
  18.150   12.48   -1.94   -1.00   0.000   0.200   0.000    0.00
  18.200   12.48   -3.90   -0.92   0.000   0.200   0.000    0.00
  18.250   12.61   -3.47   -0.98   0.000   0.200   0.000    0.00
  18.300   12.79   -3.08   -1.38   0.000   0.200   0.000    0.00
  18.350   13.37   -1.39   -1.61   0.000   0.200   0.000    0.00
  18.400   13.18    0.23   -1.56   0.000   0.200   0.000    0.00
  18.450   12.98   -2.31   -1.47   0.000   0.200   0.000    0.00
  18.500   12.93   -1.62   -1.24   0.000   0.200   0.000    0.00
  18.550   13.12   -1.50   -1.56   0.000   0.200   0.000    0.00
  18.600   13.71    0.43   -1.62   0.000   0.200   0.000    0.00
  18.650   14.11    0.88   -0.97   0.000   0.200   0.000    0.00
  18.700   13.55   -0.01   -1.14   0.000   0.200   0.000    0.00
  18.750   13.05    0.81   -1.25   0.000   0.200   0.000    0.00
  18.800   12.97   -1.52   -1.25   0.000   0.200   0.000    0.00
  18.850   12.77   -0.97   -0.47   0.000   0.200   0.000    0.00
  18.900   13.15   -1.74   -0.19   0.000   0.200   0.000    0.00
  18.950   13.16   -1.61   -0.26   0.000   0.200   0.000    0.00
  19.000   12.74   -0.26   -0.15   0.000   0.200   0.000    0.00
  19.050   12.83   -1.32    0.17   0.000   0.200   0.000    0.00
  19.100   12.69   -3.03   -0.01   0.000   0.200   0.000    0.00
  19.150   12.72   -2.52   -0.10   0.000   0.200   0.000    0.00
  19.200   12.48   -2.74   -0.06   0.000   0.200   0.000    0.00
  19.250   12.25   -3.79   -0.13   0.000   0.200   0.000    0.00
  19.300   12.51   -6.04    0.11   0.000   0.200   0.000    0.00
  19.350   12.07   -4.99    0.12   0.000   0.200   0.000    0.00
  19.400   12.16   -1.74   -0.24   0.000   0.200   0.000    0.00
  19.450   12.55   -2.28   -0.35   0.000   0.200   0.000    0.00
  19.500   12.99   -3.75   -0.45   0.000   0.200   0.000    0.00
  19.550   12.54   -2.50   -0.65   0.000   0.200   0.000    0.00
  19.600   12.24   -1.81   -0.43   0.000   0.200   0.000    0.00
  19.650   12.52   -0.88   -0.35   0.000   0.200   0.000    0.00
  19.700   12.95    0.65   -1.07   0.000   0.200   0.000    0.00
  19.750   12.80    0.61   -0.82   0.000   0.200   0.000    0.00
  19.800   13.20   -1.15   -0.84   0.000   0.200   0.000    0.00
  19.850   13.47   -3.29   -1.01   0.000   0.200   0.000    0.00
  19.900   13.82   -3.25   -1.29   0.000   0.200   0.000    0.00
  19.950   13.48    1.07   -1.26   0.000   0.200   0.000    0.00
  20.000   13.27    1.59   -1.15   0.000   0.200   0.000    0.00
  20.050   13.40    0.58   -0.99   0.000   0.200   0.000    0.00
  20.100   13.31   -0.09   -0.82   0.000   0.200   0.000    0.00
  20.150   12.85    0.29   -0.54   0.000   0.200   0.000    0.00
  20.200   12.72    2.63   -0.71   0.000   0.200   0.000    0.00
  20.250   12.90    2.69   -0.95   0.000   0.200   0.000    0.00
  20.300   12.82   -1.22   -0.58   0.000   0.200   0.000    0.00
  20.350   12.66    0.33   -0.87   0.000   0.200   0.000    0.00
  20.400   12.89   -2.28   -0.34   0.000   0.200   0.000    0.00
  20.450   12.70   -4.90   -0.61   0.000   0.200   0.000    0.00
  20.500   12.81   -6.35   -0.16   0.000   0.200   0.000    0.00
  20.550   12.59   -6.98   -0.42   0.000   0.200   0.000    0.00
  20.600   12.91   -5.12   -0.46   0.000   0.200   0.000    0.00
  20.650   12.45   -6.07   -0.32   0.000   0.200   0.000    0.00
  20.700   12.99   -2.32   -0.62   0.000   0.200   0.000    0.00
  20.750   12.85    0.67   -0.12   0.000   0.200   0.000    0.00
  20.800   12.90    0.45   -0.03   0.000   0.200   0.000    0.00
  20.850   13.29   -0.24   -0.23   0.000   0.200   0.000    0.00
  20.900   13.63   -0.13    0.11   0.000   0.200   0.000    0.00
  20.950   13.11    0.27    0.00   0.000   0.200   0.000    0.00
  21.000   14.22   -0.82    0.18   0.000   0.200   0.000    0.00
  21.050   14.18    0.09    0.19   0.000   0.200   0.000    0.00
  21.100   14.11   -0.09    0.41   0.000   0.200   0.000    0.00
  21.150   14.39   -0.94    0.60   0.000   0.200   0.000    0.00
  21.200   14.32   -3.01    0.42   0.000   0.200   0.000    0.00
  21.250   14.60   -3.05    0.64   0.000   0.200   0.000    0.00
  21.300   14.29   -4.47   -0.19   0.000   0.200   0.000    0.00
  21.350   14.31   -4.41    0.19   0.000   0.200   0.000    0.00
  21.400   13.90   -1.42    0.03   0.000   0.200   0.000    0.00
  21.450   13.90   -3.19   -0.14   0.000   0.200   0.000    0.00
  21.500   13.88   -2.91   -0.24   0.000   0.200   0.000    0.00
  21.550   13.54   -3.26   -0.08   0.000   0.200   0.000    0.00
  21.600   13.82   -2.76    0.19   0.000   0.200   0.000    0.00
  21.650   13.69   -4.31    0.50   0.000   0.200   0.000    0.00
  21.700   13.95   -3.12    0.29   0.000   0.200   0.000    0.00
  21.750   13.70   -4.65    0.04   0.000   0.200   0.000    0.00
  21.800   13.62   -2.04   -0.04   0.000   0.200   0.000    0.00
  21.850   13.85   -3.11    0.22   0.000   0.200   0.000    0.00
  21.900   14.06   -2.80    0.20   0.000   0.200   0.000    0.00
  21.950   13.48   -0.26    0.01   0.000   0.200   0.000    0.00
  22.000   13.80   -1.27   -0.37   0.000   0.200   0.000    0.00
  22.050   14.57    1.01   -0.34   0.000   0.200   0.000    0.00
  22.100   14.34   -0.24   -0.32   0.000   0.200   0.000    0.00
  22.150   14.25    1.41   -0.37   0.000   0.200   0.000    0.00
  22.200   14.92    1.24   -0.34   0.000   0.200   0.000    0.00
  22.250   14.72    1.75   -0.05   0.000   0.200   0.000    0.00
  22.300   14.51    1.90   -0.29   0.000   0.200   0.000    0.00
  22.350   14.10   -1.20   -0.39   0.000   0.200   0.000    0.00