! This hub-height wind-speed file was generated by TurbSim (v1.06.00, 21-Sep-2012) on 03-Feb-2018 at 23:32:20.
!
! The requested statistics for this data were:
!    Mean Total Wind Speed =    5.000 m/s
!    Turbulence Intensity  =   51.162%
!
!   Time  HorSpd  WndDir  VerSpd  HorShr  VerShr  LnVShr  GstSpd
!  (sec)   (m/s)   (deg)   (m/s)     (-)     (-)     (-)   (m/s)
   0.000    4.72   -7.19    2.16   0.000   0.200   0.000    0.00
   0.050    5.01   -7.23    1.73   0.000   0.200   0.000    0.00
   0.100    4.71   -8.82    1.56   0.000   0.200   0.000    0.00
   0.150    4.89   -8.68    1.74   0.000   0.200   0.000    0.00
   0.200    4.62   -9.89    2.04   0.000   0.200   0.000    0.00
   0.250    4.82   -6.97    1.39   0.000   0.200   0.000    0.00
   0.300    4.88  -10.36    1.21   0.000   0.200   0.000    0.00
   0.350    4.83  -20.43    2.00   0.000   0.200   0.000    0.00
   0.400    4.88  -23.77    2.07   0.000   0.200   0.000    0.00
   0.450    4.75  -20.87    1.83   0.000   0.200   0.000    0.00
   0.500    5.03  -18.47    2.06   0.000   0.200   0.000    0.00
   0.550    4.65  -21.56    1.62   0.000   0.200   0.000    0.00
   0.600    4.30  -25.89    1.48   0.000   0.200   0.000    0.00
   0.650    3.72  -25.49    1.35   0.000   0.200   0.000    0.00
   0.700    3.36  -21.88    1.69   0.000   0.200   0.000    0.00
   0.750    3.10  -19.42    1.79   0.000   0.200   0.000    0.00
   0.800    3.25  -21.82    2.26   0.000   0.200   0.000    0.00
   0.850    3.59  -21.54    2.63   0.000   0.200   0.000    0.00
   0.900    3.77  -31.32    2.71   0.000   0.200   0.000    0.00
   0.950    3.65  -31.62    2.94   0.000   0.200   0.000    0.00
   1.000    3.59  -38.18    3.03   0.000   0.200   0.000    0.00
   1.050    3.48  -36.84    2.93   0.000   0.200   0.000    0.00
   1.100    3.72  -41.12    3.02   0.000   0.200   0.000    0.00
   1.150    4.37  -40.20    2.42   0.000   0.200   0.000    0.00
   1.200    4.71  -38.26    2.12   0.000   0.200   0.000    0.00
   1.250    4.39  -41.16    2.21   0.000   0.200   0.000    0.00
   1.300    4.52  -44.71    1.92   0.000   0.200   0.000    0.00
   1.350    4.49  -44.06    1.93   0.000   0.200   0.000    0.00
   1.400    3.66  -43.53    2.24   0.000   0.200   0.000    0.00
   1.450    4.26  -40.07    1.75   0.000   0.200   0.000    0.00
   1.500    4.37  -41.18    1.84   0.000   0.200   0.000    0.00
   1.550    4.49  -39.62    1.57   0.000   0.200   0.000    0.00
   1.600    4.44  -35.68    1.55   0.000   0.200   0.000    0.00
   1.650    4.30  -37.65    1.51   0.000   0.200   0.000    0.00
   1.700    3.78  -39.16    1.71   0.000   0.200   0.000    0.00
   1.750    4.03  -34.79    2.26   0.000   0.200   0.000    0.00
   1.800    4.35  -36.03    2.16   0.000   0.200   0.000    0.00
   1.850    4.14  -43.69    1.71   0.000   0.200   0.000    0.00
   1.900    3.95  -41.09    1.77   0.000   0.200   0.000    0.00
   1.950    3.94  -42.52    1.94   0.000   0.200   0.000    0.00
   2.000    3.62  -41.90    1.55   0.000   0.200   0.000    0.00
   2.050    3.88  -41.67    0.77   0.000   0.200   0.000    0.00
   2.100    4.03  -43.88    0.81   0.000   0.200   0.000    0.00
   2.150    4.52  -45.56    1.28   0.000   0.200   0.000    0.00
   2.200    5.17  -40.05    1.39   0.000   0.200   0.000    0.00
   2.250    4.79  -38.22    1.38   0.000   0.200   0.000    0.00
   2.300    5.19  -42.01    0.91   0.000   0.200   0.000    0.00
   2.350    4.66  -47.28    1.14   0.000   0.200   0.000    0.00
   2.400    4.27  -44.85    1.38   0.000   0.200   0.000    0.00
   2.450    4.89  -42.44    1.41   0.000   0.200   0.000    0.00
   2.500    4.75  -44.41    1.15   0.000   0.200   0.000    0.00
   2.550    4.41  -42.79    0.75   0.000   0.200   0.000    0.00
   2.600    4.18  -40.84    0.71   0.000   0.200   0.000    0.00
   2.650    4.55  -47.45    0.82   0.000   0.200   0.000    0.00
   2.700    3.90  -44.43    0.39   0.000   0.200   0.000    0.00
   2.750    4.27  -46.13    0.18   0.000   0.200   0.000    0.00
   2.800    4.21  -48.64   -0.23   0.000   0.200   0.000    0.00
   2.850    4.16  -45.71   -0.77   0.000   0.200   0.000    0.00
   2.900    4.27  -43.05   -1.03   0.000   0.200   0.000    0.00
   2.950    4.27  -36.99   -0.61   0.000   0.200   0.000    0.00
   3.000    4.27  -42.04   -0.60   0.000   0.200   0.000    0.00
   3.050    4.10  -40.43   -0.79   0.000   0.200   0.000    0.00
   3.100    3.88  -41.23   -0.88   0.000   0.200   0.000    0.00
   3.150    3.63  -44.91   -0.41   0.000   0.200   0.000    0.00
   3.200    3.86  -45.20   -1.04   0.000   0.200   0.000    0.00
   3.250    3.43  -51.33   -0.99   0.000   0.200   0.000    0.00
   3.300    3.22  -49.92   -1.09   0.000   0.200   0.000    0.00
   3.350    3.06  -49.25   -0.98   0.000   0.200   0.000    0.00
   3.400    3.59  -47.74   -1.27   0.000   0.200   0.000    0.00
   3.450    4.02  -52.04   -1.34   0.000   0.200   0.000    0.00
   3.500    4.24  -51.75   -1.04   0.000   0.200   0.000    0.00
   3.550    4.09  -52.72   -1.26   0.000   0.200   0.000    0.00
   3.600    3.59  -44.27   -0.64   0.000   0.200   0.000    0.00
   3.650    3.17  -53.25   -0.23   0.000   0.200   0.000    0.00
   3.700    2.96  -59.20    0.06   0.000   0.200   0.000    0.00
   3.750    2.61  -55.12   -0.26   0.000   0.200   0.000    0.00
   3.800    2.64  -75.06   -0.45   0.000   0.200   0.000    0.00
   3.850    2.44  -66.21   -0.48   0.000   0.200   0.000    0.00
   3.900    2.21  -53.34   -0.07   0.000   0.200   0.000    0.00
   3.950    2.37  -44.48    0.16   0.000   0.200   0.000    0.00
   4.000    2.04  -52.63    0.59   0.000   0.200   0.000    0.00
   4.050    1.09  -37.73    0.26   0.000   0.200   0.000    0.00
   4.100    1.49  -41.11    0.36   0.000   0.200   0.000    0.00
   4.150    2.32  -39.03    0.12   0.000   0.200   0.000    0.00
   4.200    1.97  -24.26    0.08   0.000   0.200   0.000    0.00
   4.250    1.56  -29.83    0.25   0.000   0.200   0.000    0.00
   4.300    1.43  -35.80    0.40   0.000   0.200   0.000    0.00
   4.350    1.50  -35.03    0.27   0.000   0.200   0.000    0.00
   4.400    1.82  -47.52    0.51   0.000   0.200   0.000    0.00
   4.450    2.22  -33.21    0.99   0.000   0.200   0.000    0.00
   4.500    2.34  -21.89    0.58   0.000   0.200   0.000    0.00
   4.550    2.55  -25.41    0.64   0.000   0.200   0.000    0.00
   4.600    2.45  -30.72    0.65   0.000   0.200   0.000    0.00
   4.650    1.96  -31.35    0.31   0.000   0.200   0.000    0.00
   4.700    2.38  -40.97    0.11   0.000   0.200   0.000    0.00
   4.750    2.61  -51.48   -0.08   0.000   0.200   0.000    0.00
   4.800    2.51  -49.08    0.30   0.000   0.200   0.000    0.00
   4.850    2.06  -38.04    0.65   0.000   0.200   0.000    0.00
   4.900    2.19  -21.70    0.88   0.000   0.200   0.000    0.00
   4.950    1.79  -24.67    0.57   0.000   0.200   0.000    0.00
   5.000    1.44  -27.58    0.31   0.000   0.200   0.000    0.00
   5.050    0.92  -48.61    1.08   0.000   0.200   0.000    0.00
   5.100    0.76  -30.80    1.28   0.000   0.200   0.000    0.00
   5.150    0.90  -22.68    1.25   0.000   0.200   0.000    0.00
   5.200    1.35  -22.59    1.42   0.000   0.200   0.000    0.00
   5.250    1.46  -20.31    0.61   0.000   0.200   0.000    0.00
   5.300    1.14  -24.91    0.56   0.000   0.200   0.000    0.00
   5.350    1.11   -2.36    0.56   0.000   0.200   0.000    0.00
   5.400    1.29  -33.76    0.67   0.000   0.200   0.000    0.00
   5.450    1.18  -24.32    0.43   0.000   0.200   0.000    0.00
   5.500    0.98   -6.31    0.95   0.000   0.200   0.000    0.00
   5.550    1.66  -28.95    0.97   0.000   0.200   0.000    0.00
   5.600    1.67  -33.55    1.13   0.000   0.200   0.000    0.00
   5.650    1.94  -33.62    1.25   0.000   0.200   0.000    0.00
   5.700    2.08  -24.00    1.35   0.000   0.200   0.000    0.00
   5.750    2.49  -13.83    1.37   0.000   0.200   0.000    0.00
   5.800    2.46  -14.94    1.33   0.000   0.200   0.000    0.00
   5.850    2.58  -24.96    1.44   0.000   0.200   0.000    0.00
   5.900    2.73  -23.37    1.44   0.000   0.200   0.000    0.00
   5.950    2.79  -14.17    1.64   0.000   0.200   0.000    0.00
   6.000    2.60  -28.61    1.85   0.000   0.200   0.000    0.00
   6.050    2.99  -19.58    1.51   0.000   0.200   0.000    0.00
   6.100    2.84  -20.38    1.67   0.000   0.200   0.000    0.00
   6.150    2.53  -18.38    1.64   0.000   0.200   0.000    0.00
   6.200    2.24   -1.29    1.98   0.000   0.200   0.000    0.00
   6.250    2.29   -1.78    1.90   0.000   0.200   0.000    0.00
   6.300    2.50  -24.36    1.97   0.000   0.200   0.000    0.00
   6.350    2.14  -27.59    1.84   0.000   0.200   0.000    0.00
   6.400    2.81  -18.72    1.05   0.000   0.200   0.000    0.00
   6.450    2.69   -0.64    0.87   0.000   0.200   0.000    0.00
   6.500    2.38   -6.30    1.38   0.000   0.200   0.000    0.00
   6.550    2.10   -8.42    1.26   0.000   0.200   0.000    0.00
   6.600    2.73  -10.62    0.86   0.000   0.200   0.000    0.00
   6.650    3.21  -12.88    1.39   0.000   0.200   0.000    0.00
   6.700    3.03   -3.58    1.30   0.000   0.200   0.000    0.00
   6.750    2.90   -6.18    0.85   0.000   0.200   0.000    0.00
   6.800    2.47    3.17    1.11   0.000   0.200   0.000    0.00
   6.850    2.23  -11.42    0.96   0.000   0.200   0.000    0.00
   6.900    2.64  -16.23    1.02   0.000   0.200   0.000    0.00
   6.950    3.15  -23.27    1.11   0.000   0.200   0.000    0.00
   7.000    3.36  -22.57    0.50   0.000   0.200   0.000    0.00
   7.050    3.41  -22.94    0.99   0.000   0.200   0.000    0.00
   7.100    3.18  -17.41    0.48   0.000   0.200   0.000    0.00
   7.150    3.11  -12.60   -0.16   0.000   0.200   0.000    0.00
   7.200    2.53    4.10    0.80   0.000   0.200   0.000    0.00
   7.250    3.05   10.36    1.23   0.000   0.200   0.000    0.00
   7.300    3.00    7.78    1.09   0.000   0.200   0.000    0.00
   7.350    2.83   14.25    0.94   0.000   0.200   0.000    0.00
   7.400    2.58    7.48    1.37   0.000   0.200   0.000    0.00
   7.450    2.85   -5.23    1.64   0.000   0.200   0.000    0.00
   7.500    2.55   -9.11    0.85   0.000   0.200   0.000    0.00
   7.550    2.69  -12.58    1.32   0.000   0.200   0.000    0.00
   7.600    2.60  -18.51    1.19   0.000   0.200   0.000    0.00
   7.650    2.91    3.05    1.37   0.000   0.200   0.000    0.00
   7.700    3.08   -5.28    1.08   0.000   0.200   0.000    0.00
   7.750    2.98   -8.86    0.68   0.000   0.200   0.000    0.00
   7.800    3.47   -8.14    0.85   0.000   0.200   0.000    0.00
   7.850    3.63  -10.98    1.13   0.000   0.200   0.000    0.00
   7.900    3.86  -15.18    1.26   0.000   0.200   0.000    0.00
   7.950    3.68  -19.01    1.49   0.000   0.200   0.000    0.00
   8.000    3.66  -18.67    1.66   0.000   0.200   0.000    0.00
   8.050    3.86  -29.26    1.75   0.000   0.200   0.000    0.00
   8.100    3.71  -30.58    2.10   0.000   0.200   0.000    0.00
   8.150    3.57  -41.68    2.21   0.000   0.200   0.000    0.00
   8.200    3.05  -38.39    1.95   0.000   0.200   0.000    0.00
   8.250    3.18  -45.88    2.23   0.000   0.200   0.000    0.00
   8.300    3.04  -29.53    2.45   0.000   0.200   0.000    0.00
   8.350    2.58   -4.68    2.92   0.000   0.200   0.000    0.00
   8.400    2.34    0.37    3.12   0.000   0.200   0.000    0.00
   8.450    2.69    9.17    3.08   0.000   0.200   0.000    0.00
   8.500    2.86   -0.87    2.58   0.000   0.200   0.000    0.00
   8.550    2.59   -4.92    2.87   0.000   0.200   0.000    0.00
   8.600    2.89    4.82    2.98   0.000   0.200   0.000    0.00
   8.650    2.78    7.07    3.01   0.000   0.200   0.000    0.00
   8.700    3.28    0.28    2.22   0.000   0.200   0.000    0.00
   8.750    3.46    5.61    2.52   0.000   0.200   0.000    0.00
   8.800    3.01   -3.52    1.97   0.000   0.200   0.000    0.00
   8.850    2.96  -10.41    1.97   0.000   0.200   0.000    0.00
   8.900    3.64   -8.45    1.89   0.000   0.200   0.000    0.00
   8.950    3.60    1.08    1.54   0.000   0.200   0.000    0.00
   9.000    3.49    1.84    1.68   0.000   0.200   0.000    0.00
   9.050    3.44   -8.33    1.87   0.000   0.200   0.000    0.00
   9.100    3.14   -8.22    1.98   0.000   0.200   0.000    0.00
   9.150    2.91   -0.76    2.44   0.000   0.200   0.000    0.00
   9.200    2.85    6.57    2.11   0.000   0.200   0.000    0.00
   9.250    2.80   -8.70    2.01   0.000   0.200   0.000    0.00
   9.300    2.67   13.15    1.50   0.000   0.200   0.000    0.00
   9.350    2.31   18.43    1.77   0.000   0.200   0.000    0.00
   9.400    2.07    5.94    1.97   0.000   0.200   0.000    0.00
   9.450    2.53    7.86    1.96   0.000   0.200   0.000    0.00
   9.500    2.81   19.46    2.39   0.000   0.200   0.000    0.00
   9.550    3.02   17.96    2.51   0.000   0.200   0.000    0.00
   9.600    3.14   13.62    2.81   0.000   0.200   0.000    0.00
   9.650    2.89   24.32    2.52   0.000   0.200   0.000    0.00
   9.700    3.00   26.18    2.57   0.000   0.200   0.000    0.00
   9.750    2.98   27.61    2.27   0.000   0.200   0.000    0.00
   9.800    2.67   22.62    2.11   0.000   0.200   0.000    0.00
   9.850    2.83    0.62    2.04   0.000   0.200   0.000    0.00
   9.900    2.59   -3.47    1.60   0.000   0.200   0.000    0.00
   9.950    2.47    8.11    1.08   0.000   0.200   0.000    0.00
  10.000    2.25    6.96    1.77   0.000   0.200   0.000    0.00
  10.050    1.64   22.13    1.80   0.000   0.200   0.000    0.00
  10.100    1.42   23.63    1.42   0.000   0.200   0.000    0.00
  10.150    1.69   23.07    1.01   0.000   0.200   0.000    0.00
  10.200    1.89   23.68    1.04   0.000   0.200   0.000    0.00
  10.250    1.84   17.65    1.02   0.000   0.200   0.000    0.00
  10.300    2.06    8.22    0.96   0.000   0.200   0.000    0.00
  10.350    1.68   -7.17    0.42   0.000   0.200   0.000    0.00
  10.400    2.55   -6.40    0.43   0.000   0.200   0.000    0.00
  10.450    2.56   -1.73    0.42   0.000   0.200   0.000    0.00
  10.500    2.45    8.76    0.91   0.000   0.200   0.000    0.00
  10.550    2.67    6.62    0.34   0.000   0.200   0.000    0.00
  10.600    2.89    8.51    0.44   0.000   0.200   0.000    0.00
  10.650    3.08    7.95   -0.27   0.000   0.200   0.000    0.00
  10.700    2.80    5.01    0.12   0.000   0.200   0.000    0.00
  10.750    2.50    7.20    0.22   0.000   0.200   0.000    0.00
  10.800    2.38   16.89    0.21   0.000   0.200   0.000    0.00
  10.850    2.76   22.17    0.31   0.000   0.200   0.000    0.00
  10.900    2.91   19.03    0.47   0.000   0.200   0.000    0.00
  10.950    2.75   10.45    0.47   0.000   0.200   0.000    0.00
  11.000    2.68   12.11    0.88   0.000   0.200   0.000    0.00
  11.050    2.95    3.59    0.64   0.000   0.200   0.000    0.00
  11.100    3.09    8.51    0.28   0.000   0.200   0.000    0.00
  11.150    3.15    4.79    0.42   0.000   0.200   0.000    0.00
  11.200    3.44   22.89    0.81   0.000   0.200   0.000    0.00
  11.250    3.20   22.63    0.16   0.000   0.200   0.000    0.00
  11.300    2.89   14.63    0.41   0.000   0.200   0.000    0.00
  11.350    2.80    5.96    0.54   0.000   0.200   0.000    0.00
  11.400    2.84   11.24    0.75   0.000   0.200   0.000    0.00
  11.450    3.23   10.74    0.57   0.000   0.200   0.000    0.00
  11.500    3.37   22.06    0.17   0.000   0.200   0.000    0.00
  11.550    3.63   10.18    0.24   0.000   0.200   0.000    0.00
  11.600    3.47    7.32    0.74   0.000   0.200   0.000    0.00
  11.650    3.58   12.41    0.58   0.000   0.200   0.000    0.00
  11.700    3.91   17.16    0.56   0.000   0.200   0.000    0.00
  11.750    3.78    8.29    0.49   0.000   0.200   0.000    0.00
  11.800    3.63    9.31    0.49   0.000   0.200   0.000    0.00
  11.850    3.40   15.53    0.80   0.000   0.200   0.000    0.00
  11.900    3.68   14.93    0.80   0.000   0.200   0.000    0.00
  11.950    3.29   18.31    0.44   0.000   0.200   0.000    0.00
  12.000    3.35   20.76    0.12   0.000   0.200   0.000    0.00
  12.050    3.52   15.45    0.46   0.000   0.200   0.000    0.00
  12.100    3.62   22.33    1.04   0.000   0.200   0.000    0.00
  12.150    3.35   19.60    1.11   0.000   0.200   0.000    0.00
  12.200    3.14   15.82    1.26   0.000   0.200   0.000    0.00
  12.250    3.40   12.23    1.59   0.000   0.200   0.000    0.00
  12.300    3.26   17.95    1.83   0.000   0.200   0.000    0.00
  12.350    3.67   23.45    1.70   0.000   0.200   0.000    0.00
  12.400    2.95   24.62    1.82   0.000   0.200   0.000    0.00
  12.450    3.19   25.14    2.15   0.000   0.200   0.000    0.00
  12.500    3.65   26.54    2.44   0.000   0.200   0.000    0.00
  12.550    3.61   29.16    2.53   0.000   0.200   0.000    0.00
  12.600    4.13   25.05    2.91   0.000   0.200   0.000    0.00
  12.650    3.70   26.36    2.89   0.000   0.200   0.000    0.00
  12.700    3.33   25.49    2.24   0.000   0.200   0.000    0.00
  12.750    3.44   15.45    1.70   0.000   0.200   0.000    0.00
  12.800    3.69   16.90    1.72   0.000   0.200   0.000    0.00
  12.850    4.23   15.81    2.07   0.000   0.200   0.000    0.00
  12.900    3.94    9.17    2.42   0.000   0.200   0.000    0.00
  12.950    3.65    8.28    2.78   0.000   0.200   0.000    0.00
  13.000    4.12    7.33    2.83   0.000   0.200   0.000    0.00
  13.050    4.38    7.43    2.28   0.000   0.200   0.000    0.00
  13.100    4.65   10.25    2.66   0.000   0.200   0.000    0.00
  13.150    4.44   14.21    2.51   0.000   0.200   0.000    0.00
  13.200    4.09   19.98    2.51   0.000   0.200   0.000    0.00
  13.250    3.61   10.38    2.50   0.000   0.200   0.000    0.00
  13.300    3.67   13.99    2.86   0.000   0.200   0.000    0.00
  13.350    3.87    8.00    2.59   0.000   0.200   0.000    0.00
  13.400    3.81   11.24    2.53   0.000   0.200   0.000    0.00
  13.450    4.02   18.68    2.57   0.000   0.200   0.000    0.00
  13.500    4.37   19.04    2.67   0.000   0.200   0.000    0.00
  13.550    4.57   13.93    2.26   0.000   0.200   0.000    0.00
  13.600    4.62    5.58    3.28   0.000   0.200   0.000    0.00
  13.650    4.16    1.84    2.92   0.000   0.200   0.000    0.00
  13.700    3.82    7.33    2.14   0.000   0.200   0.000    0.00
  13.750    3.46    9.14    3.07   0.000   0.200   0.000    0.00
  13.800    3.41   18.03    2.93   0.000   0.200   0.000    0.00
  13.850    3.75   18.38    2.55   0.000   0.200   0.000    0.00
  13.900    3.54   19.13    2.85   0.000   0.200   0.000    0.00
  13.950    4.00   12.29    2.93   0.000   0.200   0.000    0.00
  14.000    3.91   16.00    3.08   0.000   0.200   0.000    0.00
  14.050    3.93   19.65    3.52   0.000   0.200   0.000    0.00
  14.100    4.01   25.45    4.19   0.000   0.200   0.000    0.00
  14.150    4.43   24.68    3.82   0.000   0.200   0.000    0.00
  14.200    3.75   11.27    3.88   0.000   0.200   0.000    0.00
  14.250    3.39    3.72    3.81   0.000   0.200   0.000    0.00
  14.300    3.32    7.13    3.42   0.000   0.200   0.000    0.00
  14.350    3.16   -0.55    3.62   0.000   0.200   0.000    0.00
  14.400    3.09    4.58    3.89   0.000   0.200   0.000    0.00
  14.450    2.68   13.51    4.00   0.000   0.200   0.000    0.00
  14.500    3.52   18.51    3.82   0.000   0.200   0.000    0.00
  14.550    3.75   12.91    3.66   0.000   0.200   0.000    0.00
  14.600    3.95    8.35    3.43   0.000   0.200   0.000    0.00
  14.650    3.87   12.64    3.91   0.000   0.200   0.000    0.00
  14.700    4.00   13.21    3.83   0.000   0.200   0.000    0.00
  14.750    4.14   10.99    3.53   0.000   0.200   0.000    0.00
  14.800    4.20    6.89    3.61   0.000   0.200   0.000    0.00
  14.850    4.68    8.17    3.35   0.000   0.200   0.000    0.00
  14.900    4.48   11.98    3.80   0.000   0.200   0.000    0.00
  14.950    4.03    4.10    3.50   0.000   0.200   0.000    0.00
  15.000    4.07    3.13    3.42   0.000   0.200   0.000    0.00
  15.050    3.88    8.30    3.61   0.000   0.200   0.000    0.00
  15.100    3.92   13.89    3.28   0.000   0.200   0.000    0.00
  15.150    4.10   12.24    3.44   0.000   0.200   0.000    0.00
  15.200    3.82   -0.42    3.14   0.000   0.200   0.000    0.00
  15.250    2.88   -5.93    2.97   0.000   0.200   0.000    0.00
  15.300    2.79   -6.80    3.06   0.000   0.200   0.000    0.00
  15.350    3.39   -2.10    3.62   0.000   0.200   0.000    0.00
  15.400    3.61    4.17    2.96   0.000   0.200   0.000    0.00
  15.450    3.44    1.90    3.37   0.000   0.200   0.000    0.00
  15.500    3.52   -4.36    3.16   0.000   0.200   0.000    0.00
  15.550    3.36   -9.38    2.35   0.000   0.200   0.000    0.00
  15.600    3.46   -7.41    3.07   0.000   0.200   0.000    0.00
  15.650    3.26  -14.62    3.10   0.000   0.200   0.000    0.00
  15.700    3.96  -16.45    2.81   0.000   0.200   0.000    0.00
  15.750    4.53  -16.73    2.62   0.000   0.200   0.000    0.00
  15.800    4.02  -20.69    2.63   0.000   0.200   0.000    0.00
  15.850    4.14  -24.04    3.17   0.000   0.200   0.000    0.00
  15.900    4.29  -21.36    2.26   0.000   0.200   0.000    0.00
  15.950    4.31  -16.96    2.81   0.000   0.200   0.000    0.00
  16.000    4.59  -21.10    2.86   0.000   0.200   0.000    0.00
  16.050    3.93  -16.86    3.06   0.000   0.200   0.000    0.00
  16.100    4.00  -18.45    2.55   0.000   0.200   0.000    0.00
  16.150    3.98  -19.90    2.84   0.000   0.200   0.000    0.00
  16.200    4.28  -22.95    3.24   0.000   0.200   0.000    0.00
  16.250    4.64  -27.19    3.49   0.000   0.200   0.000    0.00
  16.300    4.87  -24.43    3.11   0.000   0.200   0.000    0.00
  16.350    4.72  -21.95    3.18   0.000   0.200   0.000    0.00
  16.400    4.81  -24.35    3.54   0.000   0.200   0.000    0.00
  16.450    5.18  -30.60    3.24   0.000   0.200   0.000    0.00
  16.500    5.63  -24.74    2.64   0.000   0.200   0.000    0.00
  16.550    5.78  -16.85    2.82   0.000   0.200   0.000    0.00
  16.600    6.00  -14.84    2.65   0.000   0.200   0.000    0.00
  16.650    6.54  -13.14    3.18   0.000   0.200   0.000    0.00
  16.700    6.07  -15.78    3.13   0.000   0.200   0.000    0.00
  16.750    5.84  -14.57    2.94   0.000   0.200   0.000    0.00
  16.800    5.95  -18.06    2.74   0.000   0.200   0.000    0.00
  16.850    5.85  -16.61    2.79   0.000   0.200   0.000    0.00
  16.900    5.77   -6.26    2.92   0.000   0.200   0.000    0.00
  16.950    5.53   -3.12    2.83   0.000   0.200   0.000    0.00
  17.000    5.76   -0.31    2.97   0.000   0.200   0.000    0.00
  17.050    6.18    0.27    3.39   0.000   0.200   0.000    0.00
  17.100    6.20   -0.98    3.58   0.000   0.200   0.000    0.00
  17.150    6.03    2.39    2.71   0.000   0.200   0.000    0.00
  17.200    6.14   -0.63    2.58   0.000   0.200   0.000    0.00
  17.250    6.13   -0.40    2.68   0.000   0.200   0.000    0.00
  17.300    6.02   -1.03    2.79   0.000   0.200   0.000    0.00
  17.350    6.03    4.13    3.06   0.000   0.200   0.000    0.00
  17.400    5.96    2.77    2.41   0.000   0.200   0.000    0.00
  17.450    5.79   -0.32    2.44   0.000   0.200   0.000    0.00
  17.500    5.63    1.56    2.22   0.000   0.200   0.000    0.00
  17.550    5.49   -0.84    2.05   0.000   0.200   0.000    0.00
  17.600    5.20   -6.13    1.92   0.000   0.200   0.000    0.00
  17.650    5.37   -7.49    1.68   0.000   0.200   0.000    0.00
  17.700    5.49   -8.61    1.86   0.000   0.200   0.000    0.00
  17.750    5.42    0.52    1.88   0.000   0.200   0.000    0.00
  17.800    5.92   -1.84    1.83   0.000   0.200   0.000    0.00
  17.850    5.87   -1.23    2.05   0.000   0.200   0.000    0.00
  17.900    5.84    2.32    1.47   0.000   0.200   0.000    0.00
  17.950    5.89    3.06    1.48   0.000   0.200   0.000    0.00
  18.000    5.86    1.53    1.37   0.000   0.200   0.000    0.00
  18.050    5.82    0.84    0.87   0.000   0.200   0.000    0.00
  18.100    5.99    1.16    1.37   0.000   0.200   0.000    0.00
  18.150    6.03   -0.42    1.56   0.000   0.200   0.000    0.00
  18.200    6.29    0.03    1.03   0.000   0.200   0.000    0.00
  18.250    6.05   -5.64    0.43   0.000   0.200   0.000    0.00
  18.300    5.92   -6.13    0.75   0.000   0.200   0.000    0.00
  18.350    6.34   -6.38    0.80   0.000   0.200   0.000    0.00
  18.400    6.42   -4.13    1.09   0.000   0.200   0.000    0.00
  18.450    6.04   -4.28    1.41   0.000   0.200   0.000    0.00
  18.500    5.90   -2.83    0.89   0.000   0.200   0.000    0.00
  18.550    6.19   -0.94    0.85   0.000   0.200   0.000    0.00
  18.600    6.14   -1.99    0.85   0.000   0.200   0.000    0.00
  18.650    5.42   -4.82    0.51   0.000   0.200   0.000    0.00
  18.700    5.70   -2.43    0.39   0.000   0.200   0.000    0.00
  18.750    5.84   -1.98   -0.06   0.000   0.200   0.000    0.00
  18.800    5.77   -0.24   -0.49   0.000   0.200   0.000    0.00
  18.850    6.16    0.34    0.03   0.000   0.200   0.000    0.00
  18.900    5.85    2.32    0.77   0.000   0.200   0.000    0.00
  18.950    6.22    2.33    0.50   0.000   0.200   0.000    0.00
  19.000    6.45    6.07    0.07   0.000   0.200   0.000    0.00
  19.050    6.15    4.17    0.78   0.000   0.200   0.000    0.00
  19.100    6.08    2.28    0.59   0.000   0.200   0.000    0.00
  19.150    6.46    3.20    0.56   0.000   0.200   0.000    0.00
  19.200    6.35    9.10    0.36   0.000   0.200   0.000    0.00
  19.250    6.55    9.31    0.55   0.000   0.200   0.000    0.00
  19.300    6.42    6.87    0.27   0.000   0.200   0.000    0.00
  19.350    6.24   11.08    0.24   0.000   0.200   0.000    0.00
  19.400    6.50   15.51    0.59   0.000   0.200   0.000    0.00
  19.450    6.65   10.56    1.02   0.000   0.200   0.000    0.00
  19.500    6.27    7.90    1.19   0.000   0.200   0.000    0.00
  19.550    6.77    8.71    1.28   0.000   0.200   0.000    0.00
  19.600    6.58   17.39    1.11   0.000   0.200   0.000    0.00
  19.650    6.89   13.05    0.84   0.000   0.200   0.000    0.00
  19.700    6.25   10.56    0.71   0.000   0.200   0.000    0.00
  19.750    5.80   17.13    0.20   0.000   0.200   0.000    0.00
  19.800    5.95   24.79    0.01   0.000   0.200   0.000    0.00
  19.850    6.34   24.09    0.29   0.000   0.200   0.000    0.00
  19.900    6.23   19.83    0.32   0.000   0.200   0.000    0.00
  19.950    6.13   18.51    0.78   0.000   0.200   0.000    0.00
  20.000    6.04   13.12    0.44   0.000   0.200   0.000    0.00
  20.050    6.09   12.02    0.16   0.000   0.200   0.000    0.00
  20.100    6.32   12.47    0.46   0.000   0.200   0.000    0.00
  20.150    6.41   14.39    0.28   0.000   0.200   0.000    0.00
  20.200    6.36    8.77    0.01   0.000   0.200   0.000    0.00
  20.250    6.86   10.94   -0.06   0.000   0.200   0.000    0.00
  20.300    6.80   16.68    0.53   0.000   0.200   0.000    0.00
  20.350    6.13   17.49    0.59   0.000   0.200   0.000    0.00
  20.400    5.91   16.45    0.90   0.000   0.200   0.000    0.00
  20.450    6.02   14.09    0.87   0.000   0.200   0.000    0.00
  20.500    6.24   13.06    1.04   0.000   0.200   0.000    0.00
  20.550    5.98    6.89    0.76   0.000   0.200   0.000    0.00
  20.600    6.26    5.41    0.69   0.000   0.200   0.000    0.00
  20.650    6.50    4.42    0.76   0.000   0.200   0.000    0.00
  20.700    6.16    8.97    1.34   0.000   0.200   0.000    0.00
  20.750    5.93   12.54    1.79   0.000   0.200   0.000    0.00
  20.800    5.89    5.66    1.21   0.000   0.200   0.000    0.00
  20.850    5.82    8.82    1.51   0.000   0.200   0.000    0.00
  20.900    5.32    7.72    1.07   0.000   0.200   0.000    0.00
  20.950    5.22    1.94    0.88   0.000   0.200   0.000    0.00
  21.000    4.64    0.71    0.90   0.000   0.200   0.000    0.00
  21.050    4.48    0.25    0.88   0.000   0.200   0.000    0.00
  21.100    4.94    1.32    0.49   0.000   0.200   0.000    0.00
  21.150    5.14    8.24    0.99   0.000   0.200   0.000    0.00
  21.200    5.33    5.85    1.01   0.000   0.200   0.000    0.00
  21.250    5.17    4.02    0.99   0.000   0.200   0.000    0.00
  21.300    5.42    3.71    0.62   0.000   0.200   0.000    0.00
  21.350    5.15    1.50    0.97   0.000   0.200   0.000    0.00
  21.400    5.13    5.78    0.92   0.000   0.200   0.000    0.00
  21.450    4.97    5.89    0.46   0.000   0.200   0.000    0.00
  21.500    4.91    6.47    0.08   0.000   0.200   0.000    0.00
  21.550    4.74    9.59   -0.11   0.000   0.200   0.000    0.00
  21.600    4.67    8.49    0.35   0.000   0.200   0.000    0.00
  21.650    4.86    7.46    0.30   0.000   0.200   0.000    0.00
  21.700    4.37    7.11   -0.34   0.000   0.200   0.000    0.00
  21.750    4.12    4.04   -0.61   0.000   0.200   0.000    0.00
  21.800    4.49   -5.28   -0.61   0.000   0.200   0.000    0.00
  21.850    4.20  -11.60   -0.76   0.000   0.200   0.000    0.00
  21.900    3.85   -2.86   -0.86   0.000   0.200   0.000    0.00
  21.950    3.44   -1.78   -0.90   0.000   0.200   0.000    0.00
  22.000    3.07   -6.08   -1.17   0.000   0.200   0.000    0.00
  22.050    3.80    1.97   -1.29   0.000   0.200   0.000    0.00
  22.100    3.97   -7.88   -1.63   0.000   0.200   0.000    0.00
  22.150    4.08   -7.36   -1.57   0.000   0.200   0.000    0.00
  22.200    4.14   -4.81   -1.16   0.000   0.200   0.000    0.00
  22.250    3.79   -1.06   -1.16   0.000   0.200   0.000    0.00
  22.300    3.92   -8.07   -1.35   0.000   0.200   0.000    0.00
  22.350    3.81   -6.65   -1.17   0.000   0.200   0.000    0.00