! This hub-height wind-speed file was generated by TurbSim (v1.06.00, 21-Sep-2012) on 03-Feb-2018 at 23:35:58.
!
! The requested statistics for this data were:
!    Mean Total Wind Speed =   19.000 m/s
!    Turbulence Intensity  =   19.405%
!
!   Time  HorSpd  WndDir  VerSpd  HorShr  VerShr  LnVShr  GstSpd
!  (sec)   (m/s)   (deg)   (m/s)     (-)     (-)     (-)   (m/s)
   0.000   19.83   15.11    0.25   0.000   0.200   0.000    0.00
   0.050   20.55   17.40   -0.10   0.000   0.200   0.000    0.00
   0.100   20.57   15.96    0.94   0.000   0.200   0.000    0.00
   0.150   20.67   16.69    0.04   0.000   0.200   0.000    0.00
   0.200   19.36   17.69    0.08   0.000   0.200   0.000    0.00
   0.250   19.60   18.85   -0.53   0.000   0.200   0.000    0.00
   0.300   20.07   15.59   -0.70   0.000   0.200   0.000    0.00
   0.350   21.03   13.35   -0.27   0.000   0.200   0.000    0.00
   0.400   20.19   12.26   -0.84   0.000   0.200   0.000    0.00
   0.450   20.06   13.53   -0.38   0.000   0.200   0.000    0.00
   0.500   20.56    9.56   -0.91   0.000   0.200   0.000    0.00
   0.550   20.63   10.85   -1.29   0.000   0.200   0.000    0.00
   0.600   20.56   13.82   -0.95   0.000   0.200   0.000    0.00
   0.650   20.50   13.66   -1.07   0.000   0.200   0.000    0.00
   0.700   20.68   11.33   -1.96   0.000   0.200   0.000    0.00
   0.750   21.18   11.24   -1.80   0.000   0.200   0.000    0.00
   0.800   21.78   12.67   -1.00   0.000   0.200   0.000    0.00
   0.850   21.56   13.60   -1.21   0.000   0.200   0.000    0.00
   0.900   22.44   14.96   -0.57   0.000   0.200   0.000    0.00
   0.950   21.61   17.00   -1.85   0.000   0.200   0.000    0.00
   1.000   21.32   18.49   -2.34   0.000   0.200   0.000    0.00
   1.050   22.57   15.43   -2.66   0.000   0.200   0.000    0.00
   1.100   21.87   11.10   -3.31   0.000   0.200   0.000    0.00
   1.150   23.36   11.02   -2.99   0.000   0.200   0.000    0.00
   1.200   22.84    9.90   -2.10   0.000   0.200   0.000    0.00
   1.250   22.75    7.42   -0.47   0.000   0.200   0.000    0.00
   1.300   22.55    9.29   -0.01   0.000   0.200   0.000    0.00
   1.350   22.82    7.19   -1.09   0.000   0.200   0.000    0.00
   1.400   22.81   10.11   -1.36   0.000   0.200   0.000    0.00
   1.450   21.62   12.96   -0.76   0.000   0.200   0.000    0.00
   1.500   22.24   12.88    0.47   0.000   0.200   0.000    0.00
   1.550   22.16   12.92   -0.12   0.000   0.200   0.000    0.00
   1.600   22.20   14.87    0.82   0.000   0.200   0.000    0.00
   1.650   21.54   13.44    1.16   0.000   0.200   0.000    0.00
   1.700   21.38   16.64    0.24   0.000   0.200   0.000    0.00
   1.750   20.20   14.15    0.50   0.000   0.200   0.000    0.00
   1.800   19.77   14.47   -0.10   0.000   0.200   0.000    0.00
   1.850   19.47   12.37    0.74   0.000   0.200   0.000    0.00
   1.900   18.20   11.09    0.82   0.000   0.200   0.000    0.00
   1.950   17.17   13.16    0.35   0.000   0.200   0.000    0.00
   2.000   16.74   13.97    0.60   0.000   0.200   0.000    0.00
   2.050   16.53   17.32    1.53   0.000   0.200   0.000    0.00
   2.100   17.82    9.27    1.19   0.000   0.200   0.000    0.00
   2.150   17.90    8.95    0.44   0.000   0.200   0.000    0.00
   2.200   17.93    3.45   -0.12   0.000   0.200   0.000    0.00
   2.250   17.77    2.64   -1.59   0.000   0.200   0.000    0.00
   2.300   18.46    1.50   -0.80   0.000   0.200   0.000    0.00
   2.350   17.64   -2.05   -1.03   0.000   0.200   0.000    0.00
   2.400   16.65    0.72   -1.52   0.000   0.200   0.000    0.00
   2.450   16.46    7.88   -1.13   0.000   0.200   0.000    0.00
   2.500   16.53    8.72    0.42   0.000   0.200   0.000    0.00
   2.550   16.00    6.40   -0.25   0.000   0.200   0.000    0.00
   2.600   15.46    3.52   -2.01   0.000   0.200   0.000    0.00
   2.650   16.87    5.68   -2.26   0.000   0.200   0.000    0.00
   2.700   18.25    4.62   -2.33   0.000   0.200   0.000    0.00
   2.750   18.91    9.00   -2.17   0.000   0.200   0.000    0.00
   2.800   18.33    7.18   -3.18   0.000   0.200   0.000    0.00
   2.850   18.13    7.53   -3.39   0.000   0.200   0.000    0.00
   2.900   18.64    4.02   -4.19   0.000   0.200   0.000    0.00
   2.950   19.12    0.92   -3.62   0.000   0.200   0.000    0.00
   3.000   18.79    2.62   -4.04   0.000   0.200   0.000    0.00
   3.050   18.06   -3.23   -4.25   0.000   0.200   0.000    0.00
   3.100   18.65   -4.47   -3.44   0.000   0.200   0.000    0.00
   3.150   17.38   -3.38   -4.18   0.000   0.200   0.000    0.00
   3.200   16.49   -5.25   -4.91   0.000   0.200   0.000    0.00
   3.250   16.43   -4.72   -5.48   0.000   0.200   0.000    0.00
   3.300   16.72   -3.19   -7.04   0.000   0.200   0.000    0.00
   3.350   17.38   -4.90   -5.48   0.000   0.200   0.000    0.00
   3.400   16.61   -0.33   -3.90   0.000   0.200   0.000    0.00
   3.450   17.35   -0.72   -2.76   0.000   0.200   0.000    0.00
   3.500   17.52   -2.24   -2.80   0.000   0.200   0.000    0.00
   3.550   16.87   -2.40   -3.53   0.000   0.200   0.000    0.00
   3.600   16.89   -4.50   -3.17   0.000   0.200   0.000    0.00
   3.650   17.74   -0.67   -3.14   0.000   0.200   0.000    0.00
   3.700   17.39   -5.86   -1.03   0.000   0.200   0.000    0.00
   3.750   17.40   -8.10   -0.73   0.000   0.200   0.000    0.00
   3.800   16.21   -3.87    0.92   0.000   0.200   0.000    0.00
   3.850   16.38   -5.09   -0.37   0.000   0.200   0.000    0.00
   3.900   16.42   -7.03   -1.25   0.000   0.200   0.000    0.00
   3.950   17.39   -9.60   -1.42   0.000   0.200   0.000    0.00
   4.000   16.99  -15.11   -0.51   0.000   0.200   0.000    0.00
   4.050   17.61  -19.05    0.58   0.000   0.200   0.000    0.00
   4.100   18.57  -20.46   -0.07   0.000   0.200   0.000    0.00
   4.150   17.81  -20.94    0.05   0.000   0.200   0.000    0.00
   4.200   18.58  -16.59    0.29   0.000   0.200   0.000    0.00
   4.250   18.95  -17.28    0.64   0.000   0.200   0.000    0.00
   4.300   19.31  -19.59    0.29   0.000   0.200   0.000    0.00
   4.350   19.03  -19.36    0.32   0.000   0.200   0.000    0.00
   4.400   18.16  -13.37    0.16   0.000   0.200   0.000    0.00
   4.450   17.48  -12.01    0.23   0.000   0.200   0.000    0.00
   4.500   17.32  -11.42   -0.04   0.000   0.200   0.000    0.00
   4.550   18.18  -13.82    0.73   0.000   0.200   0.000    0.00
   4.600   19.20  -12.60    2.28   0.000   0.200   0.000    0.00
   4.650   18.81  -12.92    1.81   0.000   0.200   0.000    0.00
   4.700   17.94  -10.63    2.57   0.000   0.200   0.000    0.00
   4.750   17.51   -5.85    2.84   0.000   0.200   0.000    0.00
   4.800   18.97   -3.68    3.23   0.000   0.200   0.000    0.00
   4.850   18.56   -6.24    3.53   0.000   0.200   0.000    0.00
   4.900   18.16   -4.04    3.46   0.000   0.200   0.000    0.00
   4.950   17.76   -3.23    2.77   0.000   0.200   0.000    0.00
   5.000   17.39   -0.43    2.87   0.000   0.200   0.000    0.00
   5.050   17.90   -2.23    2.40   0.000   0.200   0.000    0.00
   5.100   19.40   -1.84    1.74   0.000   0.200   0.000    0.00
   5.150   19.64   -4.23    1.68   0.000   0.200   0.000    0.00
   5.200   19.53   -4.71    2.58   0.000   0.200   0.000    0.00
   5.250   19.60    0.04    2.65   0.000   0.200   0.000    0.00
   5.300   19.69    0.93    3.23   0.000   0.200   0.000    0.00
   5.350   19.82    2.92    3.07   0.000   0.200   0.000    0.00
   5.400   20.20    3.02    1.25   0.000   0.200   0.000    0.00
   5.450   20.30    5.34    1.30   0.000   0.200   0.000    0.00
   5.500   20.04    4.64    0.80   0.000   0.200   0.000    0.00
   5.550   21.27    0.91    0.87   0.000   0.200   0.000    0.00
   5.600   21.69   -1.76    0.90   0.000   0.200   0.000    0.00
   5.650   20.72    3.78    0.63   0.000   0.200   0.000    0.00
   5.700   20.42    2.31    0.13   0.000   0.200   0.000    0.00
   5.750   19.31   -2.24    1.50   0.000   0.200   0.000    0.00
   5.800   18.88    2.22    0.57   0.000   0.200   0.000    0.00
   5.850   18.10    4.72    1.45   0.000   0.200   0.000    0.00
   5.900   17.68    1.92    2.43   0.000   0.200   0.000    0.00
   5.950   18.37    1.02    1.53   0.000   0.200   0.000    0.00
   6.000   17.89    5.10    2.11   0.000   0.200   0.000    0.00
   6.050   18.08    5.20    1.67   0.000   0.200   0.000    0.00
   6.100   18.16    7.36    1.65   0.000   0.200   0.000    0.00
   6.150   18.54   13.53    1.50   0.000   0.200   0.000    0.00
   6.200   19.03   12.42    1.75   0.000   0.200   0.000    0.00
   6.250   19.81   11.08    1.87   0.000   0.200   0.000    0.00
   6.300   19.15    7.06    1.02   0.000   0.200   0.000    0.00
   6.350   18.83    5.38    0.53   0.000   0.200   0.000    0.00
   6.400   19.73    4.48    0.86   0.000   0.200   0.000    0.00
   6.450   18.85    4.74    0.62   0.000   0.200   0.000    0.00
   6.500   19.06    7.02    1.18   0.000   0.200   0.000    0.00
   6.550   20.09    9.55    1.20   0.000   0.200   0.000    0.00
   6.600   19.62   10.06    1.97   0.000   0.200   0.000    0.00
   6.650   19.21   12.36    1.96   0.000   0.200   0.000    0.00
   6.700   19.71   11.41    1.39   0.000   0.200   0.000    0.00
   6.750   18.12    8.78    1.87   0.000   0.200   0.000    0.00
   6.800   17.91    4.40    1.57   0.000   0.200   0.000    0.00
   6.850   18.12    5.92    1.32   0.000   0.200   0.000    0.00
   6.900   17.64   12.01    0.92   0.000   0.200   0.000    0.00
   6.950   17.90    8.24    0.58   0.000   0.200   0.000    0.00
   7.000   16.83    8.47    1.15   0.000   0.200   0.000    0.00
   7.050   16.48    9.02    1.99   0.000   0.200   0.000    0.00
   7.100   17.39    8.40    1.98   0.000   0.200   0.000    0.00
   7.150   18.23    6.46    2.64   0.000   0.200   0.000    0.00
   7.200   17.62    3.84    1.78   0.000   0.200   0.000    0.00
   7.250   16.56    2.08    0.35   0.000   0.200   0.000    0.00
   7.300   17.63    1.63    0.17   0.000   0.200   0.000    0.00
   7.350   18.29   -1.17    0.58   0.000   0.200   0.000    0.00
   7.400   17.56    0.12    0.43   0.000   0.200   0.000    0.00
   7.450   16.23    3.06   -1.24   0.000   0.200   0.000    0.00
   7.500   15.69    5.50   -0.86   0.000   0.200   0.000    0.00
   7.550   16.45    1.83   -1.29   0.000   0.200   0.000    0.00
   7.600   17.53    3.12   -2.03   0.000   0.200   0.000    0.00
   7.650   17.51    1.77   -1.95   0.000   0.200   0.000    0.00
   7.700   17.85   -0.55   -0.58   0.000   0.200   0.000    0.00
   7.750   19.07    1.95   -0.01   0.000   0.200   0.000    0.00
   7.800   18.41    4.10    0.86   0.000   0.200   0.000    0.00
   7.850   17.67    6.61    1.78   0.000   0.200   0.000    0.00
   7.900   18.71    7.65    2.19   0.000   0.200   0.000    0.00
   7.950   17.59    7.64    2.68   0.000   0.200   0.000    0.00
   8.000   16.78    7.57    3.17   0.000   0.200   0.000    0.00
   8.050   17.46    7.21    3.01   0.000   0.200   0.000    0.00
   8.100   17.49    9.74    2.25   0.000   0.200   0.000    0.00
   8.150   18.00    9.66    1.20   0.000   0.200   0.000    0.00
   8.200   17.19    4.16    1.01   0.000   0.200   0.000    0.00
   8.250   17.72    6.31    0.86   0.000   0.200   0.000    0.00
   8.300   17.37    5.40   -1.12   0.000   0.200   0.000    0.00
   8.350   18.07    2.21   -0.55   0.000   0.200   0.000    0.00
   8.400   18.87    4.68   -0.66   0.000   0.200   0.000    0.00
   8.450   18.87    4.96   -1.49   0.000   0.200   0.000    0.00
   8.500   18.39    0.38   -1.30   0.000   0.200   0.000    0.00
   8.550   18.82   -2.73   -0.31   0.000   0.200   0.000    0.00
   8.600   18.42   -2.02    0.25   0.000   0.200   0.000    0.00
   8.650   19.26    0.90    0.14   0.000   0.200   0.000    0.00
   8.700   19.52    1.07    0.27   0.000   0.200   0.000    0.00
   8.750   19.26    3.14    0.25   0.000   0.200   0.000    0.00
   8.800   19.29    3.90    0.75   0.000   0.200   0.000    0.00
   8.850   18.68    2.04   -0.10   0.000   0.200   0.000    0.00
   8.900   19.68    2.27    0.69   0.000   0.200   0.000    0.00
   8.950   20.37    8.10    0.72   0.000   0.200   0.000    0.00
   9.000   19.97    8.22   -1.48   0.000   0.200   0.000    0.00
   9.050   20.38    7.47   -1.53   0.000   0.200   0.000    0.00
   9.100   20.15    3.22   -0.32   0.000   0.200   0.000    0.00
   9.150   19.02    0.39   -0.62   0.000   0.200   0.000    0.00
   9.200   18.46    0.51   -1.22   0.000   0.200   0.000    0.00
   9.250   19.17    3.00   -1.26   0.000   0.200   0.000    0.00
   9.300   19.51    6.79   -0.91   0.000   0.200   0.000    0.00
   9.350   19.33    8.51   -2.23   0.000   0.200   0.000    0.00
   9.400   19.79    3.81   -0.99   0.000   0.200   0.000    0.00
   9.450   20.61    3.03    0.37   0.000   0.200   0.000    0.00
   9.500   20.99    2.50   -0.24   0.000   0.200   0.000    0.00
   9.550   20.88   -0.75   -1.28   0.000   0.200   0.000    0.00
   9.600   19.74    0.26   -2.74   0.000   0.200   0.000    0.00
   9.650   20.15   -0.34   -3.02   0.000   0.200   0.000    0.00
   9.700   20.21    2.78   -2.91   0.000   0.200   0.000    0.00
   9.750   20.04   -0.66   -2.35   0.000   0.200   0.000    0.00
   9.800   19.33   -0.08   -2.80   0.000   0.200   0.000    0.00
   9.850   19.20   -1.56   -2.24   0.000   0.200   0.000    0.00
   9.900   19.29   -1.15   -2.51   0.000   0.200   0.000    0.00
   9.950   19.77   -1.47   -2.56   0.000   0.200   0.000    0.00
  10.000   19.45    1.68   -2.45   0.000   0.200   0.000    0.00
  10.050   18.45    3.47   -1.91   0.000   0.200   0.000    0.00
  10.100   18.41    4.75   -0.84   0.000   0.200   0.000    0.00
  10.150   18.03    4.29   -0.68   0.000   0.200   0.000    0.00
  10.200   18.27    4.01   -1.20   0.000   0.200   0.000    0.00
  10.250   18.43    0.91    0.55   0.000   0.200   0.000    0.00
  10.300   19.01    2.55    1.29   0.000   0.200   0.000    0.00
  10.350   18.87   -1.17    0.83   0.000   0.200   0.000    0.00
  10.400   19.33   -1.64    1.42   0.000   0.200   0.000    0.00
  10.450   20.26    1.45    1.70   0.000   0.200   0.000    0.00
  10.500   19.84    0.26    1.50   0.000   0.200   0.000    0.00
  10.550   19.27    0.77    0.58   0.000   0.200   0.000    0.00
  10.600   18.85   -1.01    0.69   0.000   0.200   0.000    0.00
  10.650   18.26   -2.76    0.89   0.000   0.200   0.000    0.00
  10.700   17.34   -1.06    0.08   0.000   0.200   0.000    0.00
  10.750   16.37    1.66   -0.09   0.000   0.200   0.000    0.00
  10.800   16.26    2.41    0.10   0.000   0.200   0.000    0.00
  10.850   17.59    4.33    0.91   0.000   0.200   0.000    0.00
  10.900   17.92    3.01    1.10   0.000   0.200   0.000    0.00
  10.950   17.49    0.23    1.41   0.000   0.200   0.000    0.00
  11.000   17.84    0.90    1.05   0.000   0.200   0.000    0.00
  11.050   19.05    1.96    1.52   0.000   0.200   0.000    0.00
  11.100   18.69   -0.98    0.71   0.000   0.200   0.000    0.00
  11.150   18.97   -1.41    1.09   0.000   0.200   0.000    0.00
  11.200   19.55   -2.77    1.16   0.000   0.200   0.000    0.00
  11.250   18.73   -0.53    0.64   0.000   0.200   0.000    0.00
  11.300   18.79    2.74   -0.27   0.000   0.200   0.000    0.00
  11.350   18.84    0.10   -0.71   0.000   0.200   0.000    0.00
  11.400   19.10   -1.06   -1.34   0.000   0.200   0.000    0.00
  11.450   19.34    1.58   -2.08   0.000   0.200   0.000    0.00
  11.500   19.35    6.28   -1.10   0.000   0.200   0.000    0.00
  11.550   20.77    7.95   -2.03   0.000   0.200   0.000    0.00
  11.600   21.30    7.72   -1.59   0.000   0.200   0.000    0.00
  11.650   21.51    5.79   -2.79   0.000   0.200   0.000    0.00
  11.700   21.74    5.26   -2.60   0.000   0.200   0.000    0.00
  11.750   21.66    7.29   -2.49   0.000   0.200   0.000    0.00
  11.800   21.88    4.94   -2.18   0.000   0.200   0.000    0.00
  11.850   21.84    1.77   -3.60   0.000   0.200   0.000    0.00
  11.900   22.41    1.94   -3.72   0.000   0.200   0.000    0.00
  11.950   22.79   -0.43   -3.29   0.000   0.200   0.000    0.00
  12.000   22.77    1.64   -3.97   0.000   0.200   0.000    0.00
  12.050   22.84   -0.13   -3.58   0.000   0.200   0.000    0.00
  12.100   22.73    1.07   -3.01   0.000   0.200   0.000    0.00
  12.150   23.44    3.80   -2.46   0.000   0.200   0.000    0.00
  12.200   22.96    3.80   -1.81   0.000   0.200   0.000    0.00
  12.250   22.53    6.34   -1.05   0.000   0.200   0.000    0.00
  12.300   23.61    6.20   -1.22   0.000   0.200   0.000    0.00
  12.350   22.41    7.04   -2.39   0.000   0.200   0.000    0.00
  12.400   22.66    9.60   -2.27   0.000   0.200   0.000    0.00
  12.450   21.83    8.26   -1.92   0.000   0.200   0.000    0.00
  12.500   21.54    7.92   -2.46   0.000   0.200   0.000    0.00
  12.550   22.79   11.52   -2.14   0.000   0.200   0.000    0.00
  12.600   22.57   15.10   -3.32   0.000   0.200   0.000    0.00
  12.650   23.60   13.41   -3.78   0.000   0.200   0.000    0.00
  12.700   24.60   11.92   -4.12   0.000   0.200   0.000    0.00
  12.750   24.57   12.14   -3.11   0.000   0.200   0.000    0.00
  12.800   22.66    8.37   -3.33   0.000   0.200   0.000    0.00
  12.850   22.22   10.69   -2.67   0.000   0.200   0.000    0.00
  12.900   21.73   12.50   -1.75   0.000   0.200   0.000    0.00
  12.950   22.14   11.38   -1.67   0.000   0.200   0.000    0.00
  13.000   20.63   10.22   -2.59   0.000   0.200   0.000    0.00
  13.050   20.12    8.96   -0.43   0.000   0.200   0.000    0.00
  13.100   18.76    4.98   -0.34   0.000   0.200   0.000    0.00
  13.150   19.09    7.06   -0.41   0.000   0.200   0.000    0.00
  13.200   19.06   10.78   -1.85   0.000   0.200   0.000    0.00
  13.250   19.50   12.06   -1.97   0.000   0.200   0.000    0.00
  13.300   20.18    9.92   -2.14   0.000   0.200   0.000    0.00
  13.350   20.06   10.18   -1.64   0.000   0.200   0.000    0.00
  13.400   19.99    9.01   -2.07   0.000   0.200   0.000    0.00
  13.450   19.98    9.25   -1.59   0.000   0.200   0.000    0.00
  13.500   19.64   10.48   -0.97   0.000   0.200   0.000    0.00
  13.550   19.29   13.89   -0.30   0.000   0.200   0.000    0.00
  13.600   19.14   16.15    0.29   0.000   0.200   0.000    0.00
  13.650   19.70   14.84    0.22   0.000   0.200   0.000    0.00
  13.700   20.92   13.95    0.97   0.000   0.200   0.000    0.00
  13.750   20.63   11.63    0.78   0.000   0.200   0.000    0.00
  13.800   20.50   12.93    0.54   0.000   0.200   0.000    0.00
  13.850   20.93   11.43    0.28   0.000   0.200   0.000    0.00
  13.900   20.41   11.24    0.83   0.000   0.200   0.000    0.00
  13.950   18.71   11.29    1.02   0.000   0.200   0.000    0.00
  14.000   18.20    6.51    0.91   0.000   0.200   0.000    0.00
  14.050   18.68    9.25    0.12   0.000   0.200   0.000    0.00
  14.100   20.08   10.26   -0.84   0.000   0.200   0.000    0.00
  14.150   18.90    8.44   -0.49   0.000   0.200   0.000    0.00
  14.200   19.48    5.84   -1.17   0.000   0.200   0.000    0.00
  14.250   19.15    2.01   -2.53   0.000   0.200   0.000    0.00
  14.300   18.78    3.68   -1.87   0.000   0.200   0.000    0.00
  14.350   19.02    5.92   -2.10   0.000   0.200   0.000    0.00
  14.400   19.33    8.46   -1.78   0.000   0.200   0.000    0.00
  14.450   19.49    7.33   -2.31   0.000   0.200   0.000    0.00
  14.500   18.54    8.16   -3.27   0.000   0.200   0.000    0.00
  14.550   18.97    7.41   -2.24   0.000   0.200   0.000    0.00
  14.600   18.71    5.94   -2.24   0.000   0.200   0.000    0.00
  14.650   18.20    4.52   -1.19   0.000   0.200   0.000    0.00
  14.700   19.44    4.15   -1.42   0.000   0.200   0.000    0.00
  14.750   18.35    5.72   -1.91   0.000   0.200   0.000    0.00
  14.800   18.22    2.07   -2.25   0.000   0.200   0.000    0.00
  14.850   18.45   -0.25   -2.26   0.000   0.200   0.000    0.00
  14.900   19.04    0.83   -2.95   0.000   0.200   0.000    0.00
  14.950   19.54    0.52   -2.53   0.000   0.200   0.000    0.00
  15.000   19.65    1.00   -3.62   0.000   0.200   0.000    0.00
  15.050   19.90    6.16   -3.52   0.000   0.200   0.000    0.00
  15.100   20.07    6.23   -2.74   0.000   0.200   0.000    0.00
  15.150   21.34    2.66   -1.84   0.000   0.200   0.000    0.00
  15.200   21.39    2.81   -1.71   0.000   0.200   0.000    0.00
  15.250   21.83    0.98   -1.06   0.000   0.200   0.000    0.00
  15.300   22.18    5.26   -1.03   0.000   0.200   0.000    0.00
  15.350   21.25    2.20   -0.84   0.000   0.200   0.000    0.00
  15.400   20.38   -2.60   -1.01   0.000   0.200   0.000    0.00
  15.450   20.89   -3.76    0.71   0.000   0.200   0.000    0.00
  15.500   21.02   -1.31    1.97   0.000   0.200   0.000    0.00
  15.550   21.52   -2.98    2.04   0.000   0.200   0.000    0.00
  15.600   21.14   -6.50    3.14   0.000   0.200   0.000    0.00
  15.650   21.94   -3.60    3.69   0.000   0.200   0.000    0.00
  15.700   23.55   -4.81    2.34   0.000   0.200   0.000    0.00
  15.750   23.73   -3.34    2.49   0.000   0.200   0.000    0.00
  15.800   23.22   -6.00    2.42   0.000   0.200   0.000    0.00
  15.850   23.37   -4.31    2.28   0.000   0.200   0.000    0.00
  15.900   21.12   -6.22    2.13   0.000   0.200   0.000    0.00
  15.950   20.38   -6.93    2.06   0.000   0.200   0.000    0.00
  16.000   20.83   -5.66    2.09   0.000   0.200   0.000    0.00
  16.050   21.02   -5.62    1.35   0.000   0.200   0.000    0.00
  16.100   21.43   -4.25    1.34   0.000   0.200   0.000    0.00
  16.150   22.24   -3.32    1.21   0.000   0.200   0.000    0.00
  16.200   22.46   -1.08    0.48   0.000   0.200   0.000    0.00
  16.250   22.67    2.18    2.44   0.000   0.200   0.000    0.00
  16.300   21.37    3.16    3.86   0.000   0.200   0.000    0.00
  16.350   22.02    3.51    4.82   0.000   0.200   0.000    0.00
  16.400   21.50    2.78    3.49   0.000   0.200   0.000    0.00
  16.450   22.14    3.43    3.55   0.000   0.200   0.000    0.00
  16.500   21.99    6.61    3.14   0.000   0.200   0.000    0.00
  16.550   21.79    4.65    1.20   0.000   0.200   0.000    0.00
  16.600   20.83    5.26    1.40   0.000   0.200   0.000    0.00
  16.650   21.70    6.37    0.59   0.000   0.200   0.000    0.00
  16.700   22.42    1.51    1.64   0.000   0.200   0.000    0.00
  16.750   22.30   -0.05    0.98   0.000   0.200   0.000    0.00
  16.800   22.46    0.91    1.97   0.000   0.200   0.000    0.00
  16.850   23.13    2.66    1.29   0.000   0.200   0.000    0.00
  16.900   23.95    2.55    0.08   0.000   0.200   0.000    0.00
  16.950   23.80    0.79   -0.18   0.000   0.200   0.000    0.00
  17.000   23.00   -0.76    0.88   0.000   0.200   0.000    0.00
  17.050   22.27    0.30    1.22   0.000   0.200   0.000    0.00
  17.100   22.83    0.89   -0.49   0.000   0.200   0.000    0.00
  17.150   22.67    2.27   -1.21   0.000   0.200   0.000    0.00
  17.200   23.33    3.63   -2.06   0.000   0.200   0.000    0.00
  17.250   22.72    2.66   -2.14   0.000   0.200   0.000    0.00
  17.300   22.49    3.59   -1.65   0.000   0.200   0.000    0.00
  17.350   21.80    2.70   -1.28   0.000   0.200   0.000    0.00
  17.400   21.29    2.66   -1.28   0.000   0.200   0.000    0.00
  17.450   20.82   -1.99   -0.89   0.000   0.200   0.000    0.00
  17.500   21.49   -3.03   -0.98   0.000   0.200   0.000    0.00
  17.550   22.47    2.53   -0.56   0.000   0.200   0.000    0.00
  17.600   23.03    3.65    0.68   0.000   0.200   0.000    0.00
  17.650   22.83    1.20    0.59   0.000   0.200   0.000    0.00
  17.700   23.21    0.13    0.54   0.000   0.200   0.000    0.00
  17.750   21.67    4.02    0.57   0.000   0.200   0.000    0.00
  17.800   21.23    5.15    0.23   0.000   0.200   0.000    0.00
  17.850   21.81    5.00   -0.52   0.000   0.200   0.000    0.00
  17.900   21.34    3.57   -1.45   0.000   0.200   0.000    0.00
  17.950   20.96    2.67   -0.64   0.000   0.200   0.000    0.00
  18.000   21.06    3.11   -0.29   0.000   0.200   0.000    0.00
  18.050   20.73    2.96   -0.42   0.000   0.200   0.000    0.00
  18.100   21.39    3.31   -0.91   0.000   0.200   0.000    0.00
  18.150   20.69    5.19   -0.76   0.000   0.200   0.000    0.00
  18.200   20.87    3.24   -0.61   0.000   0.200   0.000    0.00
  18.250   20.93    6.66   -0.75   0.000   0.200   0.000    0.00
  18.300   20.49    7.54   -0.04   0.000   0.200   0.000    0.00
  18.350   21.57    5.41    0.15   0.000   0.200   0.000    0.00
  18.400   21.36    6.08    0.51   0.000   0.200   0.000    0.00
  18.450   21.00    4.77    1.87   0.000   0.200   0.000    0.00
  18.500   21.87    6.57    1.29   0.000   0.200   0.000    0.00
  18.550   22.98    3.88    0.36   0.000   0.200   0.000    0.00
  18.600   22.62    6.23    0.61   0.000   0.200   0.000    0.00
  18.650   22.62    4.71    1.30   0.000   0.200   0.000    0.00
  18.700   23.70    1.64    1.08   0.000   0.200   0.000    0.00
  18.750   23.53    0.01    0.53   0.000   0.200   0.000    0.00
  18.800   22.47    0.70    2.16   0.000   0.200   0.000    0.00
  18.850   22.20    4.07    2.92   0.000   0.200   0.000    0.00
  18.900   22.94    6.79    2.75   0.000   0.200   0.000    0.00
  18.950   22.72    4.93    2.75   0.000   0.200   0.000    0.00
  19.000   22.59    4.79    1.37   0.000   0.200   0.000    0.00
  19.050   22.14    5.03    3.24   0.000   0.200   0.000    0.00
  19.100   23.05    3.74    2.88   0.000   0.200   0.000    0.00
  19.150   22.76    6.52    2.25   0.000   0.200   0.000    0.00
  19.200   23.37    8.88    0.54   0.000   0.200   0.000    0.00
  19.250   22.92   10.04    0.24   0.000   0.200   0.000    0.00
  19.300   23.56   12.72    0.09   0.000   0.200   0.000    0.00
  19.350   25.03   11.94   -0.97   0.000   0.200   0.000    0.00
  19.400   24.56    9.93   -0.87   0.000   0.200   0.000    0.00
  19.450   24.40    9.61   -0.52   0.000   0.200   0.000    0.00
  19.500   23.30   11.52   -1.31   0.000   0.200   0.000    0.00
  19.550   22.73   10.13   -0.85   0.000   0.200   0.000    0.00
  19.600   22.16    9.26   -1.86   0.000   0.200   0.000    0.00
  19.650   22.56    7.22   -3.58   0.000   0.200   0.000    0.00
  19.700   22.00    7.00   -2.83   0.000   0.200   0.000    0.00
  19.750   21.80    5.94   -2.77   0.000   0.200   0.000    0.00
  19.800   22.81    7.70   -2.99   0.000   0.200   0.000    0.00
  19.850   23.02    9.45   -3.56   0.000   0.200   0.000    0.00
  19.900   23.58    8.14   -3.91   0.000   0.200   0.000    0.00
  19.950   24.52   10.87   -3.15   0.000   0.200   0.000    0.00
  20.000   23.75   11.96   -2.90   0.000   0.200   0.000    0.00
  20.050   23.54   11.57   -3.55   0.000   0.200   0.000    0.00
  20.100   23.21   13.27   -3.76   0.000   0.200   0.000    0.00
  20.150   22.98    9.59   -4.13   0.000   0.200   0.000    0.00
  20.200   22.53   10.11   -6.25   0.000   0.200   0.000    0.00
  20.250   23.47    9.31   -4.92   0.000   0.200   0.000    0.00
  20.300   23.66    5.02   -4.42   0.000   0.200   0.000    0.00
  20.350   24.05    5.08   -3.66   0.000   0.200   0.000    0.00
  20.400   25.69    7.53   -4.36   0.000   0.200   0.000    0.00
  20.450   25.95    8.93   -4.00   0.000   0.200   0.000    0.00
  20.500   24.93   10.25   -3.41   0.000   0.200   0.000    0.00
  20.550   24.78   10.51   -2.69   0.000   0.200   0.000    0.00
  20.600   24.40    9.49   -1.73   0.000   0.200   0.000    0.00
  20.650   24.37   10.92   -1.72   0.000   0.200   0.000    0.00
  20.700   24.53   13.83   -3.18   0.000   0.200   0.000    0.00
  20.750   23.38   13.73   -2.98   0.000   0.200   0.000    0.00
  20.800   22.77   11.11   -3.38   0.000   0.200   0.000    0.00
  20.850   22.69    9.95   -2.11   0.000   0.200   0.000    0.00
  20.900   23.61    9.67   -2.47   0.000   0.200   0.000    0.00
  20.950   24.58    8.72   -3.02   0.000   0.200   0.000    0.00
  21.000   24.42   11.38   -3.66   0.000   0.200   0.000    0.00
  21.050   23.55   10.47   -2.67   0.000   0.200   0.000    0.00
  21.100   23.36    8.30   -2.68   0.000   0.200   0.000    0.00
  21.150   23.60    7.51   -3.11   0.000   0.200   0.000    0.00
  21.200   24.97    8.10   -3.46   0.000   0.200   0.000    0.00
  21.250   25.93    8.79   -3.25   0.000   0.200   0.000    0.00
  21.300   26.07    5.58   -3.91   0.000   0.200   0.000    0.00
  21.350   25.84    5.76   -3.51   0.000   0.200   0.000    0.00
  21.400   24.31    8.91   -3.46   0.000   0.200   0.000    0.00
  21.450   25.06   10.10   -4.78   0.000   0.200   0.000    0.00
  21.500   26.30   11.82   -3.33   0.000   0.200   0.000    0.00
  21.550   25.90   10.10   -3.74   0.000   0.200   0.000    0.00
  21.600   26.84   12.26   -2.15   0.000   0.200   0.000    0.00
  21.650   27.06    9.76   -1.80   0.000   0.200   0.000    0.00
  21.700   26.70    8.31   -2.97   0.000   0.200   0.000    0.00
  21.750   27.12    6.28   -3.30   0.000   0.200   0.000    0.00
  21.800   27.22    7.11   -2.84   0.000   0.200   0.000    0.00
  21.850   25.97    6.39   -2.22   0.000   0.200   0.000    0.00
  21.900   25.41    6.90   -3.93   0.000   0.200   0.000    0.00
  21.950   24.99    9.88   -5.26   0.000   0.200   0.000    0.00
  22.000   24.70   11.74   -5.38   0.000   0.200   0.000    0.00
  22.050   24.33   12.59   -4.27   0.000   0.200   0.000    0.00
  22.100   24.42   15.06   -4.29   0.000   0.200   0.000    0.00
  22.150   24.27   16.37   -2.38   0.000   0.200   0.000    0.00
  22.200   23.98   15.02   -2.48   0.000   0.200   0.000    0.00
  22.250   23.11   13.05   -1.91   0.000   0.200   0.000    0.00
  22.300   22.98   12.34   -3.32   0.000   0.200   0.000    0.00
  22.350   22.78   13.27   -3.99   0.000   0.200   0.000    0.00