! This hub-height wind-speed file was generated by TurbSim (v1.06.00, 21-Sep-2012) on 03-Feb-2018 at 23:32:13.
!
! The requested statistics for this data were:
!    Mean Total Wind Speed =   23.000 m/s
!    Turbulence Intensity  =   17.433%
!
!   Time  HorSpd  WndDir  VerSpd  HorShr  VerShr  LnVShr  GstSpd
!  (sec)   (m/s)   (deg)   (m/s)     (-)     (-)     (-)   (m/s)
   0.000   26.89   20.45   -0.61   0.000   0.200   0.000    0.00
   0.050   28.10   21.07   -0.98   0.000   0.200   0.000    0.00
   0.100   26.99   15.61   -1.00   0.000   0.200   0.000    0.00
   0.150   27.45   16.23   -0.49   0.000   0.200   0.000    0.00
   0.200   28.99   17.74    0.28   0.000   0.200   0.000    0.00
   0.250   29.32   13.77   -0.19   0.000   0.200   0.000    0.00
   0.300   29.05   13.07   -0.27   0.000   0.200   0.000    0.00
   0.350   29.78   10.23    0.35   0.000   0.200   0.000    0.00
   0.400   31.75   11.49    0.67   0.000   0.200   0.000    0.00
   0.450   31.47    9.71    1.03   0.000   0.200   0.000    0.00
   0.500   30.96    7.29    2.13   0.000   0.200   0.000    0.00
   0.550   30.03   11.02    2.57   0.000   0.200   0.000    0.00
   0.600   29.91   11.01    2.30   0.000   0.200   0.000    0.00
   0.650   29.60   10.83    0.51   0.000   0.200   0.000    0.00
   0.700   30.57   13.37   -0.95   0.000   0.200   0.000    0.00
   0.750   31.89   15.52   -0.54   0.000   0.200   0.000    0.00
   0.800   32.32   14.32   -2.48   0.000   0.200   0.000    0.00
   0.850   31.13   15.46   -3.22   0.000   0.200   0.000    0.00
   0.900   28.91   12.24   -4.23   0.000   0.200   0.000    0.00
   0.950   27.37   12.90   -2.84   0.000   0.200   0.000    0.00
   1.000   28.81   11.75   -1.43   0.000   0.200   0.000    0.00
   1.050   28.35   11.36   -2.55   0.000   0.200   0.000    0.00
   1.100   27.71   12.78   -2.65   0.000   0.200   0.000    0.00
   1.150   27.99   10.69   -3.32   0.000   0.200   0.000    0.00
   1.200   28.24   10.76   -2.89   0.000   0.200   0.000    0.00
   1.250   28.14    9.64   -4.20   0.000   0.200   0.000    0.00
   1.300   28.43   10.59   -3.41   0.000   0.200   0.000    0.00
   1.350   27.46   10.74   -2.53   0.000   0.200   0.000    0.00
   1.400   27.41   10.64   -1.52   0.000   0.200   0.000    0.00
   1.450   28.51   10.53   -2.19   0.000   0.200   0.000    0.00
   1.500   28.31    9.37   -2.30   0.000   0.200   0.000    0.00
   1.550   29.11   12.25   -2.13   0.000   0.200   0.000    0.00
   1.600   28.77   11.08   -2.04   0.000   0.200   0.000    0.00
   1.650   27.94   13.26   -3.90   0.000   0.200   0.000    0.00
   1.700   27.77   15.11   -2.92   0.000   0.200   0.000    0.00
   1.750   27.30   15.03   -2.85   0.000   0.200   0.000    0.00
   1.800   27.57   14.41   -2.25   0.000   0.200   0.000    0.00
   1.850   27.58   10.88   -2.71   0.000   0.200   0.000    0.00
   1.900   26.61    8.61   -3.86   0.000   0.200   0.000    0.00
   1.950   27.12    9.70   -2.71   0.000   0.200   0.000    0.00
   2.000   26.81    9.78   -2.07   0.000   0.200   0.000    0.00
   2.050   26.22   10.64   -0.78   0.000   0.200   0.000    0.00
   2.100   25.18    9.56    0.25   0.000   0.200   0.000    0.00
   2.150   25.63   11.36    1.30   0.000   0.200   0.000    0.00
   2.200   24.14    9.12    2.10   0.000   0.200   0.000    0.00
   2.250   24.59    9.50    3.47   0.000   0.200   0.000    0.00
   2.300   24.86    9.16    1.74   0.000   0.200   0.000    0.00
   2.350   24.52    9.96    2.23   0.000   0.200   0.000    0.00
   2.400   26.27    8.55    2.70   0.000   0.200   0.000    0.00
   2.450   26.06   10.50    3.09   0.000   0.200   0.000    0.00
   2.500   25.42    8.97    2.49   0.000   0.200   0.000    0.00
   2.550   25.32    8.90    1.19   0.000   0.200   0.000    0.00
   2.600   24.95    6.69    1.95   0.000   0.200   0.000    0.00
   2.650   24.94    5.94    0.69   0.000   0.200   0.000    0.00
   2.700   26.12    6.37   -0.02   0.000   0.200   0.000    0.00
   2.750   25.43    6.65    1.58   0.000   0.200   0.000    0.00
   2.800   23.03    4.15    0.20   0.000   0.200   0.000    0.00
   2.850   23.44    0.28   -0.54   0.000   0.200   0.000    0.00
   2.900   23.43   -0.03   -0.76   0.000   0.200   0.000    0.00
   2.950   25.13   -1.34   -0.06   0.000   0.200   0.000    0.00
   3.000   26.15   -2.76    0.90   0.000   0.200   0.000    0.00
   3.050   25.94   -3.67    1.24   0.000   0.200   0.000    0.00
   3.100   26.15   -3.94    3.01   0.000   0.200   0.000    0.00
   3.150   26.69   -3.11    1.98   0.000   0.200   0.000    0.00
   3.200   26.42   -2.57    1.52   0.000   0.200   0.000    0.00
   3.250   24.83   -6.20    3.03   0.000   0.200   0.000    0.00
   3.300   24.15   -6.05    4.55   0.000   0.200   0.000    0.00
   3.350   23.74   -5.11    3.59   0.000   0.200   0.000    0.00
   3.400   23.52   -3.79    2.63   0.000   0.200   0.000    0.00
   3.450   23.90   -4.61    2.23   0.000   0.200   0.000    0.00
   3.500   22.90   -2.21    1.01   0.000   0.200   0.000    0.00
   3.550   22.77   -5.13    2.04   0.000   0.200   0.000    0.00
   3.600   22.31   -3.66    0.68   0.000   0.200   0.000    0.00
   3.650   23.76   -2.81    1.30   0.000   0.200   0.000    0.00
   3.700   23.41   -3.76    2.02   0.000   0.200   0.000    0.00
   3.750   23.48   -4.89    2.51   0.000   0.200   0.000    0.00
   3.800   25.60   -4.79    1.82   0.000   0.200   0.000    0.00
   3.850   26.24   -2.30    0.77   0.000   0.200   0.000    0.00
   3.900   26.19   -1.66   -0.95   0.000   0.200   0.000    0.00
   3.950   25.78   -3.67   -1.74   0.000   0.200   0.000    0.00
   4.000   25.35   -3.03   -0.62   0.000   0.200   0.000    0.00
   4.050   24.90   -0.76   -1.00   0.000   0.200   0.000    0.00
   4.100   24.17   -4.36   -2.91   0.000   0.200   0.000    0.00
   4.150   23.94   -3.69   -2.39   0.000   0.200   0.000    0.00
   4.200   23.34   -1.10   -2.80   0.000   0.200   0.000    0.00
   4.250   22.55   -0.61   -3.70   0.000   0.200   0.000    0.00
   4.300   22.84   -2.31   -1.94   0.000   0.200   0.000    0.00
   4.350   22.21   -5.62   -0.42   0.000   0.200   0.000    0.00
   4.400   23.62   -8.62   -0.37   0.000   0.200   0.000    0.00
   4.450   23.79   -8.68   -0.04   0.000   0.200   0.000    0.00
   4.500   22.10   -7.08   -0.38   0.000   0.200   0.000    0.00
   4.550   22.06   -3.43    1.30   0.000   0.200   0.000    0.00
   4.600   22.03   -2.86    0.56   0.000   0.200   0.000    0.00
   4.650   22.07   -2.76    0.55   0.000   0.200   0.000    0.00
   4.700   22.96   -3.79    0.17   0.000   0.200   0.000    0.00
   4.750   22.46   -2.95   -0.64   0.000   0.200   0.000    0.00
   4.800   21.96   -2.20    0.29   0.000   0.200   0.000    0.00
   4.850   22.44   -0.91   -0.53   0.000   0.200   0.000    0.00
   4.900   23.14   -1.00   -0.94   0.000   0.200   0.000    0.00
   4.950   24.15    2.65   -0.43   0.000   0.200   0.000    0.00
   5.000   23.23    2.07   -1.42   0.000   0.200   0.000    0.00
   5.050   23.47    6.40   -1.44   0.000   0.200   0.000    0.00
   5.100   23.50    5.74   -3.47   0.000   0.200   0.000    0.00
   5.150   24.37    1.36   -3.46   0.000   0.200   0.000    0.00
   5.200   24.01    1.04   -3.78   0.000   0.200   0.000    0.00
   5.250   24.30    4.38   -3.36   0.000   0.200   0.000    0.00
   5.300   24.61    3.98   -2.34   0.000   0.200   0.000    0.00
   5.350   25.41    2.32   -1.79   0.000   0.200   0.000    0.00
   5.400   24.53    2.75   -1.24   0.000   0.200   0.000    0.00
   5.450   24.57    2.71   -1.90   0.000   0.200   0.000    0.00
   5.500   24.65    1.38   -1.95   0.000   0.200   0.000    0.00
   5.550   23.11    6.31   -3.44   0.000   0.200   0.000    0.00
   5.600   22.17    8.36   -3.59   0.000   0.200   0.000    0.00
   5.650   22.23    8.60   -3.56   0.000   0.200   0.000    0.00
   5.700   22.45    8.79   -1.26   0.000   0.200   0.000    0.00
   5.750   22.02   10.85    0.02   0.000   0.200   0.000    0.00
   5.800   22.21   10.98   -0.96   0.000   0.200   0.000    0.00
   5.850   22.61   13.78   -0.51   0.000   0.200   0.000    0.00
   5.900   23.25   16.83   -0.45   0.000   0.200   0.000    0.00
   5.950   23.41   16.97   -0.35   0.000   0.200   0.000    0.00
   6.000   23.16   19.18    0.56   0.000   0.200   0.000    0.00
   6.050   24.10   21.78   -0.27   0.000   0.200   0.000    0.00
   6.100   23.42   19.56   -0.63   0.000   0.200   0.000    0.00
   6.150   23.46   15.11   -0.21   0.000   0.200   0.000    0.00
   6.200   22.98   12.58   -0.73   0.000   0.200   0.000    0.00
   6.250   22.76   10.90   -0.73   0.000   0.200   0.000    0.00
   6.300   22.16   12.98    0.01   0.000   0.200   0.000    0.00
   6.350   21.79   15.14   -0.53   0.000   0.200   0.000    0.00
   6.400   22.47   15.71   -0.24   0.000   0.200   0.000    0.00
   6.450   22.41   12.82   -0.54   0.000   0.200   0.000    0.00
   6.500   23.65   13.00   -0.92   0.000   0.200   0.000    0.00
   6.550   22.16   10.85   -1.86   0.000   0.200   0.000    0.00
   6.600   23.53   10.93   -1.15   0.000   0.200   0.000    0.00
   6.650   23.63    9.48   -1.21   0.000   0.200   0.000    0.00
   6.700   22.61    8.48   -2.46   0.000   0.200   0.000    0.00
   6.750   22.15   11.98   -0.52   0.000   0.200   0.000    0.00
   6.800   21.90    7.85   -0.57   0.000   0.200   0.000    0.00
   6.850   22.51    8.84   -0.42   0.000   0.200   0.000    0.00
   6.900   23.24   10.34   -0.14   0.000   0.200   0.000    0.00
   6.950   23.19   13.28   -0.36   0.000   0.200   0.000    0.00
   7.000   23.73   15.25   -1.38   0.000   0.200   0.000    0.00
   7.050   23.85   16.51   -0.33   0.000   0.200   0.000    0.00
   7.100   24.48   16.32   -0.14   0.000   0.200   0.000    0.00
   7.150   24.59   15.85    0.84   0.000   0.200   0.000    0.00
   7.200   24.98   15.20    1.16   0.000   0.200   0.000    0.00
   7.250   24.68   14.64    0.63   0.000   0.200   0.000    0.00
   7.300   24.86   15.68   -0.14   0.000   0.200   0.000    0.00
   7.350   24.79   12.55    0.26   0.000   0.200   0.000    0.00
   7.400   23.01   15.36    0.15   0.000   0.200   0.000    0.00
   7.450   23.45   15.78   -1.49   0.000   0.200   0.000    0.00
   7.500   24.23   16.12   -0.56   0.000   0.200   0.000    0.00
   7.550   24.29   20.74   -0.38   0.000   0.200   0.000    0.00
   7.600   24.36   21.38   -1.76   0.000   0.200   0.000    0.00
   7.650   24.79   20.38   -0.91   0.000   0.200   0.000    0.00
   7.700   25.34   20.11   -0.67   0.000   0.200   0.000    0.00
   7.750   24.08   21.12   -0.46   0.000   0.200   0.000    0.00
   7.800   24.68   22.03   -0.46   0.000   0.200   0.000    0.00
   7.850   23.96   20.51   -2.58   0.000   0.200   0.000    0.00
   7.900   23.95   20.01   -2.73   0.000   0.200   0.000    0.00
   7.950   23.54   19.97   -1.88   0.000   0.200   0.000    0.00
   8.000   22.76   17.57   -2.04   0.000   0.200   0.000    0.00
   8.050   22.07   15.72   -2.20   0.000   0.200   0.000    0.00
   8.100   22.98   15.82   -2.50   0.000   0.200   0.000    0.00
   8.150   23.19   15.39   -1.84   0.000   0.200   0.000    0.00
   8.200   22.75   13.53   -1.56   0.000   0.200   0.000    0.00
   8.250   22.77   11.04   -1.45   0.000   0.200   0.000    0.00
   8.300   23.14   12.23   -1.55   0.000   0.200   0.000    0.00
   8.350   23.05   12.53   -1.94   0.000   0.200   0.000    0.00
   8.400   23.44   13.58   -2.37   0.000   0.200   0.000    0.00
   8.450   23.10    9.70   -3.62   0.000   0.200   0.000    0.00
   8.500   24.17   10.89   -2.91   0.000   0.200   0.000    0.00
   8.550   24.23    9.21   -2.31   0.000   0.200   0.000    0.00
   8.600   24.51    8.36    0.49   0.000   0.200   0.000    0.00
   8.650   26.18    7.67    1.13   0.000   0.200   0.000    0.00
   8.700   26.68    4.82    2.12   0.000   0.200   0.000    0.00
   8.750   26.89    5.41    2.33   0.000   0.200   0.000    0.00
   8.800   26.54    9.60    1.24   0.000   0.200   0.000    0.00
   8.850   26.52    9.73    0.06   0.000   0.200   0.000    0.00
   8.900   27.31   12.98   -0.54   0.000   0.200   0.000    0.00
   8.950   27.20   12.42   -0.64   0.000   0.200   0.000    0.00
   9.000   27.17   10.89    0.70   0.000   0.200   0.000    0.00
   9.050   27.21    9.72   -0.19   0.000   0.200   0.000    0.00
   9.100   27.69    7.73   -0.51   0.000   0.200   0.000    0.00
   9.150   27.54    7.31    0.19   0.000   0.200   0.000    0.00
   9.200   26.89    6.48    0.03   0.000   0.200   0.000    0.00
   9.250   26.32    9.15   -0.68   0.000   0.200   0.000    0.00
   9.300   25.83    6.28   -1.20   0.000   0.200   0.000    0.00
   9.350   25.65    3.47   -0.09   0.000   0.200   0.000    0.00
   9.400   25.65    0.97    0.77   0.000   0.200   0.000    0.00
   9.450   25.19   -0.42   -0.11   0.000   0.200   0.000    0.00
   9.500   26.10    2.71   -0.33   0.000   0.200   0.000    0.00
   9.550   26.30    6.23   -0.60   0.000   0.200   0.000    0.00
   9.600   26.45    6.27   -1.83   0.000   0.200   0.000    0.00
   9.650   26.66    5.00   -0.97   0.000   0.200   0.000    0.00
   9.700   27.17    2.05   -0.92   0.000   0.200   0.000    0.00
   9.750   25.24    3.09   -2.13   0.000   0.200   0.000    0.00
   9.800   25.74    5.52   -1.62   0.000   0.200   0.000    0.00
   9.850   24.43    6.09   -1.46   0.000   0.200   0.000    0.00
   9.900   23.68    1.26   -2.11   0.000   0.200   0.000    0.00
   9.950   24.22    2.29   -2.69   0.000   0.200   0.000    0.00
  10.000   24.19    3.61   -1.45   0.000   0.200   0.000    0.00
  10.050   23.73    2.30   -0.15   0.000   0.200   0.000    0.00
  10.100   23.68    1.39   -1.40   0.000   0.200   0.000    0.00
  10.150   22.80    3.24   -1.96   0.000   0.200   0.000    0.00
  10.200   23.33    3.83   -3.20   0.000   0.200   0.000    0.00
  10.250   23.20    2.49   -2.38   0.000   0.200   0.000    0.00
  10.300   22.71    3.74   -1.07   0.000   0.200   0.000    0.00
  10.350   21.35    5.82   -1.00   0.000   0.200   0.000    0.00
  10.400   21.66    8.43   -0.40   0.000   0.200   0.000    0.00
  10.450   22.73    6.58   -1.44   0.000   0.200   0.000    0.00
  10.500   24.30    9.33   -1.75   0.000   0.200   0.000    0.00
  10.550   24.28    8.14   -3.61   0.000   0.200   0.000    0.00
  10.600   23.08    6.45   -1.52   0.000   0.200   0.000    0.00
  10.650   22.48    3.40    1.10   0.000   0.200   0.000    0.00
  10.700   22.80    2.81    1.13   0.000   0.200   0.000    0.00
  10.750   22.88    5.88    1.88   0.000   0.200   0.000    0.00
  10.800   22.41    4.58    1.07   0.000   0.200   0.000    0.00
  10.850   23.97    2.41    0.31   0.000   0.200   0.000    0.00
  10.900   24.61    4.22    0.57   0.000   0.200   0.000    0.00
  10.950   23.91    5.79    0.50   0.000   0.200   0.000    0.00
  11.000   22.68    4.55   -0.24   0.000   0.200   0.000    0.00
  11.050   22.20    5.43    0.26   0.000   0.200   0.000    0.00
  11.100   21.12    5.60    0.65   0.000   0.200   0.000    0.00
  11.150   21.56    5.75   -0.55   0.000   0.200   0.000    0.00
  11.200   21.69    5.33    0.25   0.000   0.200   0.000    0.00
  11.250   21.74    2.76    1.59   0.000   0.200   0.000    0.00
  11.300   22.13    0.98    2.27   0.000   0.200   0.000    0.00
  11.350   21.50    3.57    2.40   0.000   0.200   0.000    0.00
  11.400   20.30    3.75    3.46   0.000   0.200   0.000    0.00
  11.450   20.40    3.91    2.50   0.000   0.200   0.000    0.00
  11.500   21.27    3.67    2.27   0.000   0.200   0.000    0.00
  11.550   21.54    1.52    1.58   0.000   0.200   0.000    0.00
  11.600   21.95    2.60    1.85   0.000   0.200   0.000    0.00
  11.650   22.48    4.33    2.98   0.000   0.200   0.000    0.00
  11.700   22.40    5.67    1.36   0.000   0.200   0.000    0.00
  11.750   21.46    4.45    1.05   0.000   0.200   0.000    0.00
  11.800   21.17    5.07    0.37   0.000   0.200   0.000    0.00
  11.850   19.97    7.45   -0.33   0.000   0.200   0.000    0.00
  11.900   19.23    4.67    0.22   0.000   0.200   0.000    0.00
  11.950   19.36    5.86   -1.32   0.000   0.200   0.000    0.00
  12.000   19.89    5.46   -0.93   0.000   0.200   0.000    0.00
  12.050   19.78    3.71   -1.91   0.000   0.200   0.000    0.00
  12.100   17.83    2.08   -1.29   0.000   0.200   0.000    0.00
  12.150   18.69    0.53   -1.83   0.000   0.200   0.000    0.00
  12.200   18.85    0.65   -0.55   0.000   0.200   0.000    0.00
  12.250   18.84   -2.07   -1.20   0.000   0.200   0.000    0.00
  12.300   18.33    1.61   -1.34   0.000   0.200   0.000    0.00
  12.350   17.19    2.80   -0.91   0.000   0.200   0.000    0.00
  12.400   18.44    6.58    0.51   0.000   0.200   0.000    0.00
  12.450   18.44    3.13   -1.72   0.000   0.200   0.000    0.00
  12.500   17.54    3.36   -2.99   0.000   0.200   0.000    0.00
  12.550   16.58    5.23   -1.68   0.000   0.200   0.000    0.00
  12.600   17.59    3.61   -1.98   0.000   0.200   0.000    0.00
  12.650   18.10    2.07   -1.59   0.000   0.200   0.000    0.00
  12.700   19.82    1.39   -0.54   0.000   0.200   0.000    0.00
  12.750   20.15    3.76   -0.87   0.000   0.200   0.000    0.00
  12.800   19.35    8.76   -0.50   0.000   0.200   0.000    0.00
  12.850   19.75    7.57   -1.19   0.000   0.200   0.000    0.00
  12.900   18.63    9.32   -0.98   0.000   0.200   0.000    0.00
  12.950   17.73   13.81   -1.13   0.000   0.200   0.000    0.00
  13.000   18.43   12.80   -0.34   0.000   0.200   0.000    0.00
  13.050   17.49   10.46   -0.83   0.000   0.200   0.000    0.00
  13.100   19.07   10.34    0.06   0.000   0.200   0.000    0.00
  13.150   19.26    6.82    0.92   0.000   0.200   0.000    0.00
  13.200   20.39    5.74    0.61   0.000   0.200   0.000    0.00
  13.250   20.53    2.46    0.91   0.000   0.200   0.000    0.00
  13.300   20.74    0.40    1.11   0.000   0.200   0.000    0.00
  13.350   20.89    0.51    1.90   0.000   0.200   0.000    0.00
  13.400   19.85   -0.97    0.72   0.000   0.200   0.000    0.00
  13.450   19.74    2.04    0.81   0.000   0.200   0.000    0.00
  13.500   20.29    7.78   -0.66   0.000   0.200   0.000    0.00
  13.550   20.92    7.14   -0.27   0.000   0.200   0.000    0.00
  13.600   20.64    9.14    0.26   0.000   0.200   0.000    0.00
  13.650   21.85    7.49    0.29   0.000   0.200   0.000    0.00
  13.700   22.70   10.76   -0.38   0.000   0.200   0.000    0.00
  13.750   21.85    6.57   -0.73   0.000   0.200   0.000    0.00
  13.800   21.75    7.82   -0.15   0.000   0.200   0.000    0.00
  13.850   20.80    8.29   -0.21   0.000   0.200   0.000    0.00
  13.900   21.02    0.84   -0.06   0.000   0.200   0.000    0.00
  13.950   20.93    0.35    0.74   0.000   0.200   0.000    0.00
  14.000   19.62   -0.91    0.73   0.000   0.200   0.000    0.00
  14.050   20.26   -1.72    0.77   0.000   0.200   0.000    0.00
  14.100   20.09   -4.07    1.45   0.000   0.200   0.000    0.00
  14.150   20.15   -4.14   -0.21   0.000   0.200   0.000    0.00
  14.200   20.04   -3.33    0.77   0.000   0.200   0.000    0.00
  14.250   19.89   -5.54    1.55   0.000   0.200   0.000    0.00
  14.300   20.52    0.07    1.91   0.000   0.200   0.000    0.00
  14.350   20.00    2.49    2.02   0.000   0.200   0.000    0.00
  14.400   20.17    0.91    2.63   0.000   0.200   0.000    0.00
  14.450   19.17    1.70    1.50   0.000   0.200   0.000    0.00
  14.500   19.24    6.03    0.39   0.000   0.200   0.000    0.00
  14.550   18.03    9.16    0.61   0.000   0.200   0.000    0.00
  14.600   17.74    6.19    1.15   0.000   0.200   0.000    0.00
  14.650   17.85    5.80    0.44   0.000   0.200   0.000    0.00
  14.700   18.81    7.23   -0.41   0.000   0.200   0.000    0.00
  14.750   19.86    2.99    1.01   0.000   0.200   0.000    0.00
  14.800   20.18    3.43    1.62   0.000   0.200   0.000    0.00
  14.850   20.27    8.25    1.76   0.000   0.200   0.000    0.00
  14.900   20.33    5.37    0.52   0.000   0.200   0.000    0.00
  14.950   20.91    5.82    0.57   0.000   0.200   0.000    0.00
  15.000   21.83    9.21    0.09   0.000   0.200   0.000    0.00
  15.050   20.63   10.54    0.13   0.000   0.200   0.000    0.00
  15.100   19.88   18.66    1.37   0.000   0.200   0.000    0.00
  15.150   19.33   15.66    0.51   0.000   0.200   0.000    0.00
  15.200   18.66   14.98    0.40   0.000   0.200   0.000    0.00
  15.250   18.98    7.64   -0.57   0.000   0.200   0.000    0.00
  15.300   19.54    5.37   -0.77   0.000   0.200   0.000    0.00
  15.350   18.59    7.04    0.13   0.000   0.200   0.000    0.00
  15.400   19.57   10.78    0.20   0.000   0.200   0.000    0.00
  15.450   20.01   15.96   -0.18   0.000   0.200   0.000    0.00
  15.500   20.60   18.35   -1.60   0.000   0.200   0.000    0.00
  15.550   20.49   17.05    0.06   0.000   0.200   0.000    0.00
  15.600   20.67   14.99    0.12   0.000   0.200   0.000    0.00
  15.650   19.33    9.95   -0.33   0.000   0.200   0.000    0.00
  15.700   18.76    9.84   -1.40   0.000   0.200   0.000    0.00
  15.750   19.24    6.38   -2.69   0.000   0.200   0.000    0.00
  15.800   18.98    6.67   -1.24   0.000   0.200   0.000    0.00
  15.850   19.50    8.74    0.36   0.000   0.200   0.000    0.00
  15.900   19.35   12.38    0.19   0.000   0.200   0.000    0.00
  15.950   20.50   14.40    0.65   0.000   0.200   0.000    0.00
  16.000   21.56   11.82    1.63   0.000   0.200   0.000    0.00
  16.050   20.72   10.69    1.61   0.000   0.200   0.000    0.00
  16.100   20.42    9.68    1.62   0.000   0.200   0.000    0.00
  16.150   20.01    8.65    1.25   0.000   0.200   0.000    0.00
  16.200   18.75    6.24    1.82   0.000   0.200   0.000    0.00
  16.250   17.98    5.04    1.87   0.000   0.200   0.000    0.00
  16.300   16.56    8.23    2.90   0.000   0.200   0.000    0.00
  16.350   16.87   14.59    1.45   0.000   0.200   0.000    0.00
  16.400   16.88   21.16    1.62   0.000   0.200   0.000    0.00
  16.450   17.71   16.67    1.06   0.000   0.200   0.000    0.00
  16.500   17.26   14.71    0.09   0.000   0.200   0.000    0.00
  16.550   17.15   17.74    1.81   0.000   0.200   0.000    0.00
  16.600   17.12   15.68    0.88   0.000   0.200   0.000    0.00
  16.650   17.80   16.91    0.70   0.000   0.200   0.000    0.00
  16.700   16.72   20.10    1.28   0.000   0.200   0.000    0.00
  16.750   17.34   16.85    1.53   0.000   0.200   0.000    0.00
  16.800   17.22   20.07    1.49   0.000   0.200   0.000    0.00
  16.850   17.78   19.30    1.21   0.000   0.200   0.000    0.00
  16.900   17.54   13.66    2.25   0.000   0.200   0.000    0.00
  16.950   17.61    5.40    3.08   0.000   0.200   0.000    0.00
  17.000   18.67    7.79    3.29   0.000   0.200   0.000    0.00
  17.050   18.37    5.46    2.36   0.000   0.200   0.000    0.00
  17.100   18.28    2.43    1.69   0.000   0.200   0.000    0.00
  17.150   19.03    3.21    1.72   0.000   0.200   0.000    0.00
  17.200   18.25    9.65    2.11   0.000   0.200   0.000    0.00
  17.250   18.07   11.68    3.46   0.000   0.200   0.000    0.00
  17.300   19.47    9.95    4.26   0.000   0.200   0.000    0.00
  17.350   20.59    9.81    4.47   0.000   0.200   0.000    0.00
  17.400   21.22    8.37    5.03   0.000   0.200   0.000    0.00
  17.450   22.10    5.12    3.74   0.000   0.200   0.000    0.00
  17.500   22.99    5.74    3.24   0.000   0.200   0.000    0.00
  17.550   21.21    6.54    2.50   0.000   0.200   0.000    0.00
  17.600   21.16    6.87    1.54   0.000   0.200   0.000    0.00
  17.650   22.54    9.85    1.63   0.000   0.200   0.000    0.00
  17.700   22.65   12.34    2.48   0.000   0.200   0.000    0.00
  17.750   21.73   12.85    3.14   0.000   0.200   0.000    0.00
  17.800   20.64   13.14    2.70   0.000   0.200   0.000    0.00
  17.850   20.80   14.27    1.35   0.000   0.200   0.000    0.00
  17.900   21.15   11.66    1.19   0.000   0.200   0.000    0.00
  17.950   22.22    7.12    1.36   0.000   0.200   0.000    0.00
  18.000   21.42    8.36    1.22   0.000   0.200   0.000    0.00
  18.050   20.48    6.63    1.65   0.000   0.200   0.000    0.00
  18.100   20.60   11.12    2.01   0.000   0.200   0.000    0.00
  18.150   20.93   10.48    2.69   0.000   0.200   0.000    0.00
  18.200   20.68   13.04    1.88   0.000   0.200   0.000    0.00
  18.250   19.88   13.24    2.49   0.000   0.200   0.000    0.00
  18.300   20.03   11.20    2.52   0.000   0.200   0.000    0.00
  18.350   20.94   13.25    3.01   0.000   0.200   0.000    0.00
  18.400   21.71   13.20    3.23   0.000   0.200   0.000    0.00
  18.450   22.17   15.34    3.59   0.000   0.200   0.000    0.00
  18.500   22.65   15.44    2.75   0.000   0.200   0.000    0.00
  18.550   23.00   16.05    2.45   0.000   0.200   0.000    0.00
  18.600   23.18   14.20    3.23   0.000   0.200   0.000    0.00
  18.650   22.27   11.25    2.26   0.000   0.200   0.000    0.00
  18.700   22.88   12.44    2.42   0.000   0.200   0.000    0.00
  18.750   22.95   11.86    3.56   0.000   0.200   0.000    0.00
  18.800   21.85   13.67    2.09   0.000   0.200   0.000    0.00
  18.850   22.08   14.73    1.46   0.000   0.200   0.000    0.00
  18.900   21.30   17.09    0.47   0.000   0.200   0.000    0.00
  18.950   21.78   19.29    0.62   0.000   0.200   0.000    0.00
  19.000   23.35   16.06    0.17   0.000   0.200   0.000    0.00
  19.050   23.06   14.37    2.72   0.000   0.200   0.000    0.00
  19.100   23.68   13.42    4.19   0.000   0.200   0.000    0.00
  19.150   23.08   10.01    3.78   0.000   0.200   0.000    0.00
  19.200   22.39   10.00    4.69   0.000   0.200   0.000    0.00
  19.250   22.16   10.77    5.19   0.000   0.200   0.000    0.00
  19.300   22.45   13.87    5.18   0.000   0.200   0.000    0.00
  19.350   23.67   17.09    5.40   0.000   0.200   0.000    0.00
  19.400   23.32   16.78    5.16   0.000   0.200   0.000    0.00
  19.450   21.28   20.54    4.30   0.000   0.200   0.000    0.00
  19.500   20.82   22.29    3.70   0.000   0.200   0.000    0.00
  19.550   22.45   22.19    3.21   0.000   0.200   0.000    0.00
  19.600   22.53   22.75    2.47   0.000   0.200   0.000    0.00
  19.650   22.51   24.80    3.03   0.000   0.200   0.000    0.00
  19.700   20.69   22.36    2.83   0.000   0.200   0.000    0.00
  19.750   20.77   21.85    3.65   0.000   0.200   0.000    0.00
  19.800   19.93   19.37    3.37   0.000   0.200   0.000    0.00
  19.850   20.33   14.17    4.07   0.000   0.200   0.000    0.00
  19.900   19.99   13.95    4.61   0.000   0.200   0.000    0.00
  19.950   20.44   10.67    3.42   0.000   0.200   0.000    0.00
  20.000   20.30    9.80    3.20   0.000   0.200   0.000    0.00
  20.050   19.78   10.90    1.80   0.000   0.200   0.000    0.00
  20.100   20.14   11.80    1.78   0.000   0.200   0.000    0.00
  20.150   20.42   13.80    2.61   0.000   0.200   0.000    0.00
  20.200   20.25   19.08    1.04   0.000   0.200   0.000    0.00
  20.250   20.37   18.83    1.16   0.000   0.200   0.000    0.00
  20.300   20.29   20.71    0.91   0.000   0.200   0.000    0.00
  20.350   21.33   22.72   -0.05   0.000   0.200   0.000    0.00
  20.400   20.94   19.36   -0.64   0.000   0.200   0.000    0.00
  20.450   21.59   21.77    0.31   0.000   0.200   0.000    0.00
  20.500   22.89   18.55    0.13   0.000   0.200   0.000    0.00
  20.550   22.47   12.17   -0.27   0.000   0.200   0.000    0.00
  20.600   21.51   10.70   -0.56   0.000   0.200   0.000    0.00
  20.650   21.31    8.41    0.17   0.000   0.200   0.000    0.00
  20.700   20.39    8.02   -0.14   0.000   0.200   0.000    0.00
  20.750   18.81    8.40   -0.20   0.000   0.200   0.000    0.00
  20.800   19.85    7.56   -1.33   0.000   0.200   0.000    0.00
  20.850   20.40    7.75    0.23   0.000   0.200   0.000    0.00
  20.900   20.48    9.41    0.78   0.000   0.200   0.000    0.00
  20.950   20.95    8.87    0.35   0.000   0.200   0.000    0.00
  21.000   21.92   11.31    0.78   0.000   0.200   0.000    0.00
  21.050   23.42   10.88    0.52   0.000   0.200   0.000    0.00
  21.100   22.89   10.39   -0.60   0.000   0.200   0.000    0.00
  21.150   22.76    9.86    0.03   0.000   0.200   0.000    0.00
  21.200   22.97    7.55   -0.45   0.000   0.200   0.000    0.00
  21.250   23.25   11.28   -0.40   0.000   0.200   0.000    0.00
  21.300   22.88    8.22    0.68   0.000   0.200   0.000    0.00
  21.350   22.33    6.28   -0.60   0.000   0.200   0.000    0.00
  21.400   22.05    5.94   -1.31   0.000   0.200   0.000    0.00
  21.450   24.10    9.92   -1.73   0.000   0.200   0.000    0.00
  21.500   22.22   12.45   -1.13   0.000   0.200   0.000    0.00
  21.550   21.80   15.02    0.94   0.000   0.200   0.000    0.00
  21.600   21.08   19.66    0.99   0.000   0.200   0.000    0.00
  21.650   20.71   19.73    1.08   0.000   0.200   0.000    0.00
  21.700   21.81   19.75    1.80   0.000   0.200   0.000    0.00
  21.750   21.89   18.20    2.34   0.000   0.200   0.000    0.00
  21.800   21.71   18.05    1.55   0.000   0.200   0.000    0.00
  21.850   20.54   21.26    1.54   0.000   0.200   0.000    0.00
  21.900   20.48   20.64    1.23   0.000   0.200   0.000    0.00
  21.950   19.69   17.77    2.48   0.000   0.200   0.000    0.00
  22.000   20.36   12.77    2.63   0.000   0.200   0.000    0.00
  22.050   19.75   12.15    2.27   0.000   0.200   0.000    0.00
  22.100   20.22   11.31    1.47   0.000   0.200   0.000    0.00
  22.150   21.31   12.06    1.82   0.000   0.200   0.000    0.00
  22.200   21.12   12.79    1.62   0.000   0.200   0.000    0.00
  22.250   19.69   10.70    1.76   0.000   0.200   0.000    0.00
  22.300   19.31    8.64    1.54   0.000   0.200   0.000    0.00
  22.350   18.84    7.57    1.75   0.000   0.200   0.000    0.00