! This hub-height wind-speed file was generated by TurbSim (v1.06.00, 21-Sep-2012) on 03-Feb-2018 at 23:30:35.
!
! The requested statistics for this data were:
!    Mean Total Wind Speed =   19.000 m/s
!    Turbulence Intensity  =   19.405%
!
!   Time  HorSpd  WndDir  VerSpd  HorShr  VerShr  LnVShr  GstSpd
!  (sec)   (m/s)   (deg)   (m/s)     (-)     (-)     (-)   (m/s)
   0.000   23.20    2.82   -1.57   0.000   0.200   0.000    0.00
   0.050   23.95    1.50   -1.13   0.000   0.200   0.000    0.00
   0.100   23.67    5.68   -1.62   0.000   0.200   0.000    0.00
   0.150   24.75    7.03   -1.86   0.000   0.200   0.000    0.00
   0.200   25.10    6.33   -1.40   0.000   0.200   0.000    0.00
   0.250   25.19    4.21   -2.44   0.000   0.200   0.000    0.00
   0.300   25.11    1.91   -2.26   0.000   0.200   0.000    0.00
   0.350   25.10    1.99   -3.21   0.000   0.200   0.000    0.00
   0.400   24.95    3.78   -1.77   0.000   0.200   0.000    0.00
   0.450   25.00    5.89   -1.02   0.000   0.200   0.000    0.00
   0.500   25.17    5.77   -1.25   0.000   0.200   0.000    0.00
   0.550   24.43    7.77   -1.76   0.000   0.200   0.000    0.00
   0.600   23.13    7.20   -2.29   0.000   0.200   0.000    0.00
   0.650   22.93    6.33   -1.62   0.000   0.200   0.000    0.00
   0.700   22.21    6.77   -2.71   0.000   0.200   0.000    0.00
   0.750   21.33    7.64   -2.92   0.000   0.200   0.000    0.00
   0.800   20.72   13.89   -3.39   0.000   0.200   0.000    0.00
   0.850   20.07   13.61   -3.27   0.000   0.200   0.000    0.00
   0.900   20.42   12.91   -2.58   0.000   0.200   0.000    0.00
   0.950   20.09   13.57   -1.73   0.000   0.200   0.000    0.00
   1.000   22.22   12.94   -2.68   0.000   0.200   0.000    0.00
   1.050   23.24    9.42   -2.99   0.000   0.200   0.000    0.00
   1.100   22.98    7.80   -2.77   0.000   0.200   0.000    0.00
   1.150   23.71    7.12   -0.71   0.000   0.200   0.000    0.00
   1.200   24.21    4.41   -1.70   0.000   0.200   0.000    0.00
   1.250   23.29    4.79   -2.78   0.000   0.200   0.000    0.00
   1.300   22.85    7.35   -2.59   0.000   0.200   0.000    0.00
   1.350   22.41    7.19   -2.88   0.000   0.200   0.000    0.00
   1.400   22.72    8.54   -2.58   0.000   0.200   0.000    0.00
   1.450   23.30   11.16   -0.65   0.000   0.200   0.000    0.00
   1.500   23.61   10.05    1.90   0.000   0.200   0.000    0.00
   1.550   23.66    9.92    1.15   0.000   0.200   0.000    0.00
   1.600   24.00   11.98   -0.12   0.000   0.200   0.000    0.00
   1.650   23.83   10.78    0.59   0.000   0.200   0.000    0.00
   1.700   22.76   12.00    0.41   0.000   0.200   0.000    0.00
   1.750   23.09   10.14    1.14   0.000   0.200   0.000    0.00
   1.800   23.06   10.02    2.22   0.000   0.200   0.000    0.00
   1.850   24.28   15.89    1.73   0.000   0.200   0.000    0.00
   1.900   22.76   13.20   -0.33   0.000   0.200   0.000    0.00
   1.950   22.08   11.22    0.39   0.000   0.200   0.000    0.00
   2.000   23.11   12.74   -0.70   0.000   0.200   0.000    0.00
   2.050   23.79   11.51   -1.76   0.000   0.200   0.000    0.00
   2.100   24.59   11.81   -1.48   0.000   0.200   0.000    0.00
   2.150   23.15   11.48    1.04   0.000   0.200   0.000    0.00
   2.200   22.44   11.87    2.49   0.000   0.200   0.000    0.00
   2.250   21.73    8.34    2.08   0.000   0.200   0.000    0.00
   2.300   21.83    6.28    1.13   0.000   0.200   0.000    0.00
   2.350   22.27    6.48   -0.57   0.000   0.200   0.000    0.00
   2.400   23.13    9.05    0.52   0.000   0.200   0.000    0.00
   2.450   23.65    8.89   -0.68   0.000   0.200   0.000    0.00
   2.500   24.11    7.07   -0.79   0.000   0.200   0.000    0.00
   2.550   24.03    7.59   -0.36   0.000   0.200   0.000    0.00
   2.600   23.34    7.62   -2.45   0.000   0.200   0.000    0.00
   2.650   22.24    7.55   -2.27   0.000   0.200   0.000    0.00
   2.700   22.95    6.39   -1.02   0.000   0.200   0.000    0.00
   2.750   24.05    5.67   -0.59   0.000   0.200   0.000    0.00
   2.800   23.83    4.39   -0.48   0.000   0.200   0.000    0.00
   2.850   23.86    0.54   -1.00   0.000   0.200   0.000    0.00
   2.900   22.91    1.64   -0.40   0.000   0.200   0.000    0.00
   2.950   22.86    0.74   -0.97   0.000   0.200   0.000    0.00
   3.000   23.18   -1.53   -0.84   0.000   0.200   0.000    0.00
   3.050   22.52   -0.25   -1.47   0.000   0.200   0.000    0.00
   3.100   23.87   -3.48   -1.55   0.000   0.200   0.000    0.00
   3.150   23.57   -1.89   -2.37   0.000   0.200   0.000    0.00
   3.200   23.87   -3.38   -1.32   0.000   0.200   0.000    0.00
   3.250   23.31   -1.69   -2.02   0.000   0.200   0.000    0.00
   3.300   22.49   -3.56   -0.84   0.000   0.200   0.000    0.00
   3.350   21.60   -2.39   -1.04   0.000   0.200   0.000    0.00
   3.400   22.28   -3.70   -1.19   0.000   0.200   0.000    0.00
   3.450   22.53   -4.49   -1.57   0.000   0.200   0.000    0.00
   3.500   21.81   -5.52   -1.94   0.000   0.200   0.000    0.00
   3.550   21.13   -3.50   -1.43   0.000   0.200   0.000    0.00
   3.600   21.03   -4.69   -1.04   0.000   0.200   0.000    0.00
   3.650   21.11   -3.74   -0.40   0.000   0.200   0.000    0.00
   3.700   20.75   -4.40   -0.95   0.000   0.200   0.000    0.00
   3.750   21.26   -3.39   -1.79   0.000   0.200   0.000    0.00
   3.800   22.08   -0.99   -2.31   0.000   0.200   0.000    0.00
   3.850   22.28    0.65   -2.65   0.000   0.200   0.000    0.00
   3.900   21.42   -1.58   -3.47   0.000   0.200   0.000    0.00
   3.950   20.77   -0.47   -3.95   0.000   0.200   0.000    0.00
   4.000   21.75   -0.73   -3.83   0.000   0.200   0.000    0.00
   4.050   22.83   -0.13   -2.88   0.000   0.200   0.000    0.00
   4.100   23.33    1.92   -3.48   0.000   0.200   0.000    0.00
   4.150   22.55    7.19   -1.43   0.000   0.200   0.000    0.00
   4.200   22.75    9.97   -0.46   0.000   0.200   0.000    0.00
   4.250   23.97   10.12   -0.94   0.000   0.200   0.000    0.00
   4.300   22.64   12.33   -0.84   0.000   0.200   0.000    0.00
   4.350   22.65   12.84   -0.66   0.000   0.200   0.000    0.00
   4.400   21.91   13.61    0.81   0.000   0.200   0.000    0.00
   4.450   21.65   12.01    1.51   0.000   0.200   0.000    0.00
   4.500   21.33    9.93    0.16   0.000   0.200   0.000    0.00
   4.550   20.87   10.51    0.42   0.000   0.200   0.000    0.00
   4.600   20.26   12.61    0.87   0.000   0.200   0.000    0.00
   4.650   19.39    9.42    0.87   0.000   0.200   0.000    0.00
   4.700   19.73    8.27   -0.49   0.000   0.200   0.000    0.00
   4.750   20.42    6.31   -0.16   0.000   0.200   0.000    0.00
   4.800   20.55    7.13    0.45   0.000   0.200   0.000    0.00
   4.850   21.09    8.95    1.37   0.000   0.200   0.000    0.00
   4.900   20.02    8.47    0.54   0.000   0.200   0.000    0.00
   4.950   19.21   10.57    1.58   0.000   0.200   0.000    0.00
   5.000   19.81    9.13    0.84   0.000   0.200   0.000    0.00
   5.050   19.24    7.43    0.64   0.000   0.200   0.000    0.00
   5.100   19.46    6.18    0.51   0.000   0.200   0.000    0.00
   5.150   19.27    5.76   -0.04   0.000   0.200   0.000    0.00
   5.200   19.45    3.30    0.36   0.000   0.200   0.000    0.00
   5.250   20.13    4.61    1.33   0.000   0.200   0.000    0.00
   5.300   21.48    3.78    1.22   0.000   0.200   0.000    0.00
   5.350   21.29    2.96    0.90   0.000   0.200   0.000    0.00
   5.400   22.74    3.46    1.30   0.000   0.200   0.000    0.00
   5.450   22.54    4.81    1.34   0.000   0.200   0.000    0.00
   5.500   22.89   -1.44   -0.30   0.000   0.200   0.000    0.00
   5.550   23.09   -2.53   -0.73   0.000   0.200   0.000    0.00
   5.600   22.20    1.79   -0.35   0.000   0.200   0.000    0.00
   5.650   22.95    1.94    0.47   0.000   0.200   0.000    0.00
   5.700   22.75    1.07   -1.07   0.000   0.200   0.000    0.00
   5.750   21.45   -2.41   -2.44   0.000   0.200   0.000    0.00
   5.800   21.92   -3.29   -1.49   0.000   0.200   0.000    0.00
   5.850   22.35   -1.27   -1.59   0.000   0.200   0.000    0.00
   5.900   21.47   -2.66   -2.51   0.000   0.200   0.000    0.00
   5.950   22.34   -3.77   -1.65   0.000   0.200   0.000    0.00
   6.000   22.85   -2.86   -1.12   0.000   0.200   0.000    0.00
   6.050   22.70   -1.48   -1.72   0.000   0.200   0.000    0.00
   6.100   23.47   -1.38   -1.14   0.000   0.200   0.000    0.00
   6.150   23.90   -4.50   -0.48   0.000   0.200   0.000    0.00
   6.200   25.49   -5.43   -1.74   0.000   0.200   0.000    0.00
   6.250   24.20   -5.93   -2.61   0.000   0.200   0.000    0.00
   6.300   24.35   -7.15   -1.93   0.000   0.200   0.000    0.00
   6.350   25.82   -6.33   -2.60   0.000   0.200   0.000    0.00
   6.400   26.22   -5.56   -2.46   0.000   0.200   0.000    0.00
   6.450   25.32   -4.37   -3.05   0.000   0.200   0.000    0.00
   6.500   24.94   -6.94   -3.00   0.000   0.200   0.000    0.00
   6.550   24.64  -11.27   -3.67   0.000   0.200   0.000    0.00
   6.600   25.83  -10.58   -3.36   0.000   0.200   0.000    0.00
   6.650   26.15   -9.96   -5.00   0.000   0.200   0.000    0.00
   6.700   26.50   -9.12   -5.67   0.000   0.200   0.000    0.00
   6.750   27.10  -10.56   -4.71   0.000   0.200   0.000    0.00
   6.800   27.12   -7.54   -4.86   0.000   0.200   0.000    0.00
   6.850   27.58   -6.47   -5.46   0.000   0.200   0.000    0.00
   6.900   27.02   -5.01   -5.40   0.000   0.200   0.000    0.00
   6.950   27.28   -8.25   -5.24   0.000   0.200   0.000    0.00
   7.000   28.21   -9.57   -4.53   0.000   0.200   0.000    0.00
   7.050   28.56   -7.55   -2.49   0.000   0.200   0.000    0.00
   7.100   27.55   -5.96   -2.63   0.000   0.200   0.000    0.00
   7.150   28.76   -6.70   -2.10   0.000   0.200   0.000    0.00
   7.200   28.85   -6.97   -2.52   0.000   0.200   0.000    0.00
   7.250   30.18   -4.94   -2.77   0.000   0.200   0.000    0.00
   7.300   29.46   -3.42   -2.42   0.000   0.200   0.000    0.00
   7.350   29.94   -4.73   -4.71   0.000   0.200   0.000    0.00
   7.400   29.81   -3.14   -4.99   0.000   0.200   0.000    0.00
   7.450   29.50    0.63   -5.14   0.000   0.200   0.000    0.00
   7.500   30.29   -0.40   -3.81   0.000   0.200   0.000    0.00
   7.550   29.55   -1.68   -4.15   0.000   0.200   0.000    0.00
   7.600   29.26    0.15   -4.36   0.000   0.200   0.000    0.00
   7.650   28.24   -0.53   -4.13   0.000   0.200   0.000    0.00
   7.700   29.41   -1.55   -3.36   0.000   0.200   0.000    0.00
   7.750   29.14   -3.15   -3.14   0.000   0.200   0.000    0.00
   7.800   29.64   -3.51   -2.28   0.000   0.200   0.000    0.00
   7.850   30.80   -5.97   -2.78   0.000   0.200   0.000    0.00
   7.900   30.84   -3.16   -3.96   0.000   0.200   0.000    0.00
   7.950   31.59   -1.18   -3.98   0.000   0.200   0.000    0.00
   8.000   31.21   -3.17   -3.00   0.000   0.200   0.000    0.00
   8.050   31.33   -3.38   -2.39   0.000   0.200   0.000    0.00
   8.100   30.63   -3.58   -1.38   0.000   0.200   0.000    0.00
   8.150   31.19   -4.02   -1.43   0.000   0.200   0.000    0.00
   8.200   30.43   -4.67   -1.34   0.000   0.200   0.000    0.00
   8.250   30.86   -5.06   -2.60   0.000   0.200   0.000    0.00
   8.300   31.14   -3.86   -2.45   0.000   0.200   0.000    0.00
   8.350   29.81   -4.50   -1.99   0.000   0.200   0.000    0.00
   8.400   29.09   -2.48   -2.31   0.000   0.200   0.000    0.00
   8.450   30.22   -2.78   -2.77   0.000   0.200   0.000    0.00
   8.500   28.97   -5.70   -2.76   0.000   0.200   0.000    0.00
   8.550   27.84   -6.22   -2.99   0.000   0.200   0.000    0.00
   8.600   27.63   -5.70   -2.27   0.000   0.200   0.000    0.00
   8.650   28.39   -6.80   -2.01   0.000   0.200   0.000    0.00
   8.700   28.51   -4.97   -1.84   0.000   0.200   0.000    0.00
   8.750   28.43   -3.06   -1.52   0.000   0.200   0.000    0.00
   8.800   28.65   -4.20   -3.15   0.000   0.200   0.000    0.00
   8.850   28.43   -2.24   -3.96   0.000   0.200   0.000    0.00
   8.900   27.71   -2.28   -3.23   0.000   0.200   0.000    0.00
   8.950   26.53   -1.39   -3.87   0.000   0.200   0.000    0.00
   9.000   26.80   -2.12   -4.38   0.000   0.200   0.000    0.00
   9.050   26.60   -3.55   -4.03   0.000   0.200   0.000    0.00
   9.100   26.19   -3.24   -4.12   0.000   0.200   0.000    0.00
   9.150   26.62   -4.20   -3.06   0.000   0.200   0.000    0.00
   9.200   26.19   -3.39   -2.61   0.000   0.200   0.000    0.00
   9.250   25.76   -4.42   -1.80   0.000   0.200   0.000    0.00
   9.300   25.58   -4.56   -1.42   0.000   0.200   0.000    0.00
   9.350   24.47   -3.88   -1.02   0.000   0.200   0.000    0.00
   9.400   25.15   -2.06   -1.30   0.000   0.200   0.000    0.00
   9.450   25.33   -1.58   -1.16   0.000   0.200   0.000    0.00
   9.500   25.37   -4.99   -1.81   0.000   0.200   0.000    0.00
   9.550   25.46   -5.02   -1.56   0.000   0.200   0.000    0.00
   9.600   24.70   -5.62   -0.07   0.000   0.200   0.000    0.00
   9.650   25.07   -3.81    1.20   0.000   0.200   0.000    0.00
   9.700   24.42   -2.21    0.43   0.000   0.200   0.000    0.00
   9.750   24.63   -3.79    1.03   0.000   0.200   0.000    0.00
   9.800   24.86   -2.88    1.74   0.000   0.200   0.000    0.00
   9.850   25.89   -1.58    1.97   0.000   0.200   0.000    0.00
   9.900   26.05   -3.48    2.06   0.000   0.200   0.000    0.00
   9.950   25.12   -5.74    2.59   0.000   0.200   0.000    0.00
  10.000   24.40   -4.02    3.33   0.000   0.200   0.000    0.00
  10.050   24.61   -5.64    3.20   0.000   0.200   0.000    0.00
  10.100   24.50   -7.13    3.87   0.000   0.200   0.000    0.00
  10.150   26.11   -3.32    2.96   0.000   0.200   0.000    0.00
  10.200   26.61   -6.70    3.05   0.000   0.200   0.000    0.00
  10.250   26.66   -4.14    2.32   0.000   0.200   0.000    0.00
  10.300   26.27   -5.53    1.02   0.000   0.200   0.000    0.00
  10.350   26.21   -6.34    0.46   0.000   0.200   0.000    0.00
  10.400   26.17   -4.17    0.66   0.000   0.200   0.000    0.00
  10.450   26.30   -5.13    0.66   0.000   0.200   0.000    0.00
  10.500   26.10   -7.01   -0.50   0.000   0.200   0.000    0.00
  10.550   25.45   -8.23   -0.61   0.000   0.200   0.000    0.00
  10.600   26.07   -7.79   -1.86   0.000   0.200   0.000    0.00
  10.650   26.04   -9.16   -1.09   0.000   0.200   0.000    0.00
  10.700   25.46   -7.88   -0.89   0.000   0.200   0.000    0.00
  10.750   25.32   -7.82   -1.87   0.000   0.200   0.000    0.00
  10.800   25.22   -4.67   -1.30   0.000   0.200   0.000    0.00
  10.850   23.73   -4.49   -0.53   0.000   0.200   0.000    0.00
  10.900   23.64   -4.91   -0.09   0.000   0.200   0.000    0.00
  10.950   24.23   -4.74   -0.62   0.000   0.200   0.000    0.00
  11.000   24.17   -4.44   -0.15   0.000   0.200   0.000    0.00
  11.050   23.11   -4.65   -1.26   0.000   0.200   0.000    0.00
  11.100   23.58   -4.69   -1.26   0.000   0.200   0.000    0.00
  11.150   22.48   -3.29   -0.65   0.000   0.200   0.000    0.00
  11.200   21.91   -4.84    0.17   0.000   0.200   0.000    0.00
  11.250   22.56   -6.11    1.24   0.000   0.200   0.000    0.00
  11.300   22.55   -8.94    2.10   0.000   0.200   0.000    0.00
  11.350   23.28   -7.57    3.30   0.000   0.200   0.000    0.00
  11.400   23.07   -8.06    2.10   0.000   0.200   0.000    0.00
  11.450   23.02   -7.37    2.17   0.000   0.200   0.000    0.00
  11.500   23.17   -6.00    2.55   0.000   0.200   0.000    0.00
  11.550   23.52   -5.37    1.83   0.000   0.200   0.000    0.00
  11.600   22.70   -3.79    2.51   0.000   0.200   0.000    0.00
  11.650   22.61   -2.97    1.76   0.000   0.200   0.000    0.00
  11.700   23.15   -1.79    1.11   0.000   0.200   0.000    0.00
  11.750   23.68   -2.14    1.47   0.000   0.200   0.000    0.00
  11.800   24.78   -2.27    2.54   0.000   0.200   0.000    0.00
  11.850   23.64   -0.85    2.01   0.000   0.200   0.000    0.00
  11.900   23.19   -0.39    1.92   0.000   0.200   0.000    0.00
  11.950   24.12   -2.00    1.75   0.000   0.200   0.000    0.00
  12.000   23.16   -2.81    1.50   0.000   0.200   0.000    0.00
  12.050   24.04   -2.82    0.30   0.000   0.200   0.000    0.00
  12.100   24.16   -6.59    0.77   0.000   0.200   0.000    0.00
  12.150   24.98   -4.00   -0.23   0.000   0.200   0.000    0.00
  12.200   24.29   -3.87    0.15   0.000   0.200   0.000    0.00
  12.250   24.28    0.84    0.49   0.000   0.200   0.000    0.00
  12.300   24.20   -2.75   -0.39   0.000   0.200   0.000    0.00
  12.350   24.17   -2.92    0.81   0.000   0.200   0.000    0.00
  12.400   24.21   -3.98    0.75   0.000   0.200   0.000    0.00
  12.450   24.34   -4.53    1.70   0.000   0.200   0.000    0.00
  12.500   24.31   -5.65    1.17   0.000   0.200   0.000    0.00
  12.550   25.21   -3.62    1.70   0.000   0.200   0.000    0.00
  12.600   25.55   -4.40    1.08   0.000   0.200   0.000    0.00
  12.650   25.94   -3.97    1.07   0.000   0.200   0.000    0.00
  12.700   25.77   -3.98    0.89   0.000   0.200   0.000    0.00
  12.750   25.82   -5.14    1.99   0.000   0.200   0.000    0.00
  12.800   24.49   -4.66    1.49   0.000   0.200   0.000    0.00
  12.850   24.88   -3.53    1.63   0.000   0.200   0.000    0.00
  12.900   24.50   -3.24    1.12   0.000   0.200   0.000    0.00
  12.950   24.76   -1.29   -0.04   0.000   0.200   0.000    0.00
  13.000   24.35    0.61    1.50   0.000   0.200   0.000    0.00
  13.050   25.25   -2.65    0.95   0.000   0.200   0.000    0.00
  13.100   26.15   -5.95    0.46   0.000   0.200   0.000    0.00
  13.150   26.43   -4.05   -0.25   0.000   0.200   0.000    0.00
  13.200   26.21   -5.10   -0.02   0.000   0.200   0.000    0.00
  13.250   27.11   -6.02   -0.36   0.000   0.200   0.000    0.00
  13.300   27.40   -5.63    0.08   0.000   0.200   0.000    0.00
  13.350   27.21   -5.52    0.22   0.000   0.200   0.000    0.00
  13.400   27.19   -4.11   -2.02   0.000   0.200   0.000    0.00
  13.450   27.52   -4.66   -2.68   0.000   0.200   0.000    0.00
  13.500   26.30   -3.42   -2.09   0.000   0.200   0.000    0.00
  13.550   25.41   -5.47   -0.97   0.000   0.200   0.000    0.00
  13.600   25.80   -4.87   -0.03   0.000   0.200   0.000    0.00
  13.650   25.46   -7.91   -0.36   0.000   0.200   0.000    0.00
  13.700   25.36   -5.86   -0.82   0.000   0.200   0.000    0.00
  13.750   25.83   -6.11   -0.14   0.000   0.200   0.000    0.00
  13.800   26.20   -3.57    0.99   0.000   0.200   0.000    0.00
  13.850   26.54   -5.55   -0.62   0.000   0.200   0.000    0.00
  13.900   25.70   -8.81    1.00   0.000   0.200   0.000    0.00
  13.950   25.48   -7.71    2.15   0.000   0.200   0.000    0.00
  14.000   25.18  -10.53    1.03   0.000   0.200   0.000    0.00
  14.050   24.56   -8.88    0.19   0.000   0.200   0.000    0.00
  14.100   23.57   -5.72    0.09   0.000   0.200   0.000    0.00
  14.150   23.64   -6.42    0.05   0.000   0.200   0.000    0.00
  14.200   24.15   -1.84   -0.18   0.000   0.200   0.000    0.00
  14.250   24.03   -0.55    0.57   0.000   0.200   0.000    0.00
  14.300   25.42   -0.43    0.20   0.000   0.200   0.000    0.00
  14.350   25.49   -2.89    0.20   0.000   0.200   0.000    0.00
  14.400   24.91   -0.59   -0.62   0.000   0.200   0.000    0.00
  14.450   25.28   -3.51   -1.12   0.000   0.200   0.000    0.00
  14.500   26.50   -4.37   -0.45   0.000   0.200   0.000    0.00
  14.550   26.13   -4.19   -0.71   0.000   0.200   0.000    0.00
  14.600   25.34   -5.27   -0.27   0.000   0.200   0.000    0.00
  14.650   25.63   -5.85   -0.85   0.000   0.200   0.000    0.00
  14.700   26.16   -4.83   -0.77   0.000   0.200   0.000    0.00
  14.750   26.76   -5.98   -0.70   0.000   0.200   0.000    0.00
  14.800   25.95   -7.33   -1.07   0.000   0.200   0.000    0.00
  14.850   25.54   -4.92    0.58   0.000   0.200   0.000    0.00
  14.900   24.97   -5.08    1.32   0.000   0.200   0.000    0.00
  14.950   25.65   -4.97    0.13   0.000   0.200   0.000    0.00
  15.000   25.62   -5.20   -0.16   0.000   0.200   0.000    0.00
  15.050   25.70   -6.75    0.28   0.000   0.200   0.000    0.00
  15.100   26.54   -6.49   -1.37   0.000   0.200   0.000    0.00
  15.150   26.75   -2.20   -0.55   0.000   0.200   0.000    0.00
  15.200   27.02   -3.64   -0.02   0.000   0.200   0.000    0.00
  15.250   26.92   -3.31   -0.89   0.000   0.200   0.000    0.00
  15.300   27.06   -5.78   -1.04   0.000   0.200   0.000    0.00
  15.350   27.20   -6.84   -1.00   0.000   0.200   0.000    0.00
  15.400   28.11   -5.52    0.08   0.000   0.200   0.000    0.00
  15.450   27.68   -7.55   -0.04   0.000   0.200   0.000    0.00
  15.500   26.46   -5.76   -1.52   0.000   0.200   0.000    0.00
  15.550   28.03   -7.07   -1.16   0.000   0.200   0.000    0.00
  15.600   28.65   -5.59    0.14   0.000   0.200   0.000    0.00
  15.650   28.06   -6.48   -0.38   0.000   0.200   0.000    0.00
  15.700   27.95   -5.43   -0.95   0.000   0.200   0.000    0.00
  15.750   27.24   -9.41   -0.36   0.000   0.200   0.000    0.00
  15.800   26.77   -7.88   -0.67   0.000   0.200   0.000    0.00
  15.850   26.77   -6.63   -1.62   0.000   0.200   0.000    0.00
  15.900   26.97   -8.03   -1.09   0.000   0.200   0.000    0.00
  15.950   27.21  -11.06   -1.32   0.000   0.200   0.000    0.00
  16.000   26.98  -10.75   -0.92   0.000   0.200   0.000    0.00
  16.050   26.61   -9.68   -0.66   0.000   0.200   0.000    0.00
  16.100   24.98   -7.26   -0.03   0.000   0.200   0.000    0.00
  16.150   25.20   -6.24   -0.66   0.000   0.200   0.000    0.00
  16.200   25.40   -5.96   -0.68   0.000   0.200   0.000    0.00
  16.250   26.55   -4.17   -2.07   0.000   0.200   0.000    0.00
  16.300   27.20   -4.82   -1.32   0.000   0.200   0.000    0.00
  16.350   26.13   -5.38   -1.39   0.000   0.200   0.000    0.00
  16.400   25.69   -6.87   -0.54   0.000   0.200   0.000    0.00
  16.450   25.73   -6.34    0.21   0.000   0.200   0.000    0.00
  16.500   25.90   -2.94   -0.13   0.000   0.200   0.000    0.00
  16.550   25.41   -3.01    1.59   0.000   0.200   0.000    0.00
  16.600   26.83   -5.92    1.62   0.000   0.200   0.000    0.00
  16.650   27.03   -8.08    0.85   0.000   0.200   0.000    0.00
  16.700   27.49   -7.61    1.52   0.000   0.200   0.000    0.00
  16.750   27.11   -6.82    1.51   0.000   0.200   0.000    0.00
  16.800   27.58   -4.79    2.00   0.000   0.200   0.000    0.00
  16.850   27.32   -4.25    0.66   0.000   0.200   0.000    0.00
  16.900   27.56   -5.68   -0.19   0.000   0.200   0.000    0.00
  16.950   27.83   -6.65   -0.17   0.000   0.200   0.000    0.00
  17.000   26.96   -6.81    1.34   0.000   0.200   0.000    0.00
  17.050   26.44   -5.31    1.34   0.000   0.200   0.000    0.00
  17.100   26.48   -5.88    0.53   0.000   0.200   0.000    0.00
  17.150   26.58   -6.18    1.55   0.000   0.200   0.000    0.00
  17.200   27.17   -6.15    1.28   0.000   0.200   0.000    0.00
  17.250   26.38   -4.68    1.80   0.000   0.200   0.000    0.00
  17.300   26.93   -3.46    1.29   0.000   0.200   0.000    0.00
  17.350   27.28   -3.75    1.44   0.000   0.200   0.000    0.00
  17.400   28.12   -3.58    1.03   0.000   0.200   0.000    0.00
  17.450   28.37   -3.26    0.27   0.000   0.200   0.000    0.00
  17.500   26.65   -3.98    0.16   0.000   0.200   0.000    0.00
  17.550   26.92   -2.94   -0.33   0.000   0.200   0.000    0.00
  17.600   26.82   -1.98    0.06   0.000   0.200   0.000    0.00
  17.650   26.66   -1.76   -0.74   0.000   0.200   0.000    0.00
  17.700   25.70   -2.68   -2.59   0.000   0.200   0.000    0.00
  17.750   25.71   -2.81   -2.28   0.000   0.200   0.000    0.00
  17.800   25.89   -2.78   -1.73   0.000   0.200   0.000    0.00
  17.850   25.84   -6.28   -0.30   0.000   0.200   0.000    0.00
  17.900   25.94   -4.51    0.75   0.000   0.200   0.000    0.00
  17.950   27.35   -3.72    1.87   0.000   0.200   0.000    0.00
  18.000   26.35   -4.41    1.85   0.000   0.200   0.000    0.00
  18.050   25.57   -8.14    2.44   0.000   0.200   0.000    0.00
  18.100   25.66   -9.23    2.38   0.000   0.200   0.000    0.00
  18.150   25.15   -8.74    3.01   0.000   0.200   0.000    0.00
  18.200   25.87   -8.18    2.33   0.000   0.200   0.000    0.00
  18.250   27.94   -8.38    1.44   0.000   0.200   0.000    0.00
  18.300   28.00   -8.59    2.54   0.000   0.200   0.000    0.00
  18.350   28.43   -9.73    3.46   0.000   0.200   0.000    0.00
  18.400   28.24  -13.48    3.52   0.000   0.200   0.000    0.00
  18.450   28.25  -10.93    4.45   0.000   0.200   0.000    0.00
  18.500   29.21   -9.63    3.41   0.000   0.200   0.000    0.00
  18.550   28.04  -10.60    2.90   0.000   0.200   0.000    0.00
  18.600   29.03   -9.58    3.55   0.000   0.200   0.000    0.00
  18.650   29.14   -9.47    4.41   0.000   0.200   0.000    0.00
  18.700   28.75  -10.66    2.41   0.000   0.200   0.000    0.00
  18.750   29.21   -8.51    2.02   0.000   0.200   0.000    0.00
  18.800   28.35   -9.32    2.05   0.000   0.200   0.000    0.00
  18.850   27.69   -7.56    1.11   0.000   0.200   0.000    0.00
  18.900   26.62  -10.41    2.43   0.000   0.200   0.000    0.00
  18.950   26.00   -8.09    2.41   0.000   0.200   0.000    0.00
  19.000   25.98   -4.48    2.05   0.000   0.200   0.000    0.00
  19.050   26.79   -6.60    1.25   0.000   0.200   0.000    0.00
  19.100   26.85   -4.07    0.34   0.000   0.200   0.000    0.00
  19.150   27.25   -4.24    0.57   0.000   0.200   0.000    0.00
  19.200   28.03   -4.19    1.18   0.000   0.200   0.000    0.00
  19.250   28.74   -3.69    1.23   0.000   0.200   0.000    0.00
  19.300   27.48   -4.84    0.52   0.000   0.200   0.000    0.00
  19.350   27.50   -6.14   -0.73   0.000   0.200   0.000    0.00
  19.400   27.20   -4.83    0.91   0.000   0.200   0.000    0.00
  19.450   27.50   -5.81    1.29   0.000   0.200   0.000    0.00
  19.500   28.30   -5.30    1.81   0.000   0.200   0.000    0.00
  19.550   28.08   -3.77    2.71   0.000   0.200   0.000    0.00
  19.600   29.21   -4.44    2.14   0.000   0.200   0.000    0.00
  19.650   29.19   -5.07    2.12   0.000   0.200   0.000    0.00
  19.700   28.72   -1.86    2.28   0.000   0.200   0.000    0.00
  19.750   28.78   -2.24    2.38   0.000   0.200   0.000    0.00
  19.800   30.34   -4.12    1.45   0.000   0.200   0.000    0.00
  19.850   29.72   -4.00    1.63   0.000   0.200   0.000    0.00
  19.900   29.89   -5.29    0.41   0.000   0.200   0.000    0.00
  19.950   29.67   -4.85   -0.03   0.000   0.200   0.000    0.00
  20.000   30.22   -6.26    0.39   0.000   0.200   0.000    0.00
  20.050   29.31   -6.31   -0.41   0.000   0.200   0.000    0.00
  20.100   29.42   -4.41   -0.03   0.000   0.200   0.000    0.00
  20.150   28.84   -5.06    0.83   0.000   0.200   0.000    0.00
  20.200   28.74   -4.52    1.87   0.000   0.200   0.000    0.00
  20.250   29.12   -6.18    0.00   0.000   0.200   0.000    0.00
  20.300   30.18   -4.88    0.74   0.000   0.200   0.000    0.00
  20.350   30.76   -5.65    1.55   0.000   0.200   0.000    0.00
  20.400   30.83   -5.62    1.57   0.000   0.200   0.000    0.00
  20.450   30.07   -3.57    3.07   0.000   0.200   0.000    0.00
  20.500   30.49   -3.13    2.70   0.000   0.200   0.000    0.00
  20.550   31.45   -5.78    2.16   0.000   0.200   0.000    0.00
  20.600   31.95   -7.21    2.84   0.000   0.200   0.000    0.00
  20.650   31.47   -7.98    2.56   0.000   0.200   0.000    0.00
  20.700   31.61   -6.91    2.21   0.000   0.200   0.000    0.00
  20.750   31.83   -5.50    3.04   0.000   0.200   0.000    0.00
  20.800   31.82   -6.65    2.60   0.000   0.200   0.000    0.00
  20.850   31.23   -6.00    1.62   0.000   0.200   0.000    0.00
  20.900   31.71   -5.63    1.31   0.000   0.200   0.000    0.00
  20.950   32.24   -6.28    0.74   0.000   0.200   0.000    0.00
  21.000   30.85   -4.67    0.79   0.000   0.200   0.000    0.00
  21.050   29.67   -4.87   -0.26   0.000   0.200   0.000    0.00
  21.100   29.18   -5.41   -0.10   0.000   0.200   0.000    0.00
  21.150   29.73   -6.86   -1.72   0.000   0.200   0.000    0.00
  21.200   29.20   -7.85   -1.13   0.000   0.200   0.000    0.00
  21.250   29.62   -8.16   -0.90   0.000   0.200   0.000    0.00
  21.300   30.42   -9.68   -0.71   0.000   0.200   0.000    0.00
  21.350   30.91  -10.34   -0.10   0.000   0.200   0.000    0.00
  21.400   30.34   -8.80    0.04   0.000   0.200   0.000    0.00
  21.450   30.25  -11.24    0.38   0.000   0.200   0.000    0.00
  21.500   29.59  -13.00    1.10   0.000   0.200   0.000    0.00
  21.550   29.31  -10.52    0.63   0.000   0.200   0.000    0.00
  21.600   30.15  -10.85    0.51   0.000   0.200   0.000    0.00
  21.650   31.11  -11.80    1.09   0.000   0.200   0.000    0.00
  21.700   31.11  -11.26    0.25   0.000   0.200   0.000    0.00
  21.750   30.20  -10.35   -0.05   0.000   0.200   0.000    0.00
  21.800   30.26  -10.09    0.30   0.000   0.200   0.000    0.00
  21.850   31.31   -8.89    0.66   0.000   0.200   0.000    0.00
  21.900   33.12   -8.45   -0.77   0.000   0.200   0.000    0.00
  21.950   32.25   -8.99   -1.08   0.000   0.200   0.000    0.00
  22.000   31.32   -8.68   -1.64   0.000   0.200   0.000    0.00
  22.050   30.17   -8.77   -1.74   0.000   0.200   0.000    0.00
  22.100   29.70   -8.80   -0.92   0.000   0.200   0.000    0.00
  22.150   28.85  -11.23   -0.77   0.000   0.200   0.000    0.00
  22.200   29.48  -10.32   -0.64   0.000   0.200   0.000    0.00
  22.250   28.05   -8.55   -1.63   0.000   0.200   0.000    0.00
  22.300   27.61   -9.91   -1.05   0.000   0.200   0.000    0.00
  22.350   27.83   -9.85   -0.34   0.000   0.200   0.000    0.00