! This hub-height wind-speed file was generated by TurbSim (v1.06.00, 21-Sep-2012) on 03-Feb-2018 at 23:29:24.
!
! The requested statistics for this data were:
!    Mean Total Wind Speed =   21.000 m/s
!    Turbulence Intensity  =   18.325%
!
!   Time  HorSpd  WndDir  VerSpd  HorShr  VerShr  LnVShr  GstSpd
!  (sec)   (m/s)   (deg)   (m/s)     (-)     (-)     (-)   (m/s)
   0.000   20.94    3.01   -3.33   0.000   0.200   0.000    0.00
   0.050   19.50    2.59   -3.22   0.000   0.200   0.000    0.00
   0.100   19.36    4.02   -2.79   0.000   0.200   0.000    0.00
   0.150   19.17    3.57   -2.81   0.000   0.200   0.000    0.00
   0.200   19.62    4.35   -2.08   0.000   0.200   0.000    0.00
   0.250   20.57    3.49   -1.45   0.000   0.200   0.000    0.00
   0.300   20.15    3.48   -2.65   0.000   0.200   0.000    0.00
   0.350   19.82    1.91   -2.77   0.000   0.200   0.000    0.00
   0.400   21.04    5.10   -1.46   0.000   0.200   0.000    0.00
   0.450   21.20    5.14   -0.74   0.000   0.200   0.000    0.00
   0.500   20.32    5.25   -1.46   0.000   0.200   0.000    0.00
   0.550   20.01    4.84   -2.35   0.000   0.200   0.000    0.00
   0.600   20.03    2.76   -2.21   0.000   0.200   0.000    0.00
   0.650   19.25    6.19   -2.80   0.000   0.200   0.000    0.00
   0.700   19.37   11.00   -2.62   0.000   0.200   0.000    0.00
   0.750   19.13    8.82   -1.90   0.000   0.200   0.000    0.00
   0.800   19.99    9.83   -0.90   0.000   0.200   0.000    0.00
   0.850   20.29   10.60   -1.95   0.000   0.200   0.000    0.00
   0.900   20.38    9.28   -2.14   0.000   0.200   0.000    0.00
   0.950   20.20    5.82   -1.95   0.000   0.200   0.000    0.00
   1.000   20.24    3.78   -2.69   0.000   0.200   0.000    0.00
   1.050   21.43    5.78   -1.98   0.000   0.200   0.000    0.00
   1.100   21.33    4.48   -2.45   0.000   0.200   0.000    0.00
   1.150   21.21    7.73   -1.99   0.000   0.200   0.000    0.00
   1.200   21.68    5.46   -2.21   0.000   0.200   0.000    0.00
   1.250   21.09    4.16   -3.33   0.000   0.200   0.000    0.00
   1.300   20.67    6.08   -2.98   0.000   0.200   0.000    0.00
   1.350   21.08    3.97   -3.12   0.000   0.200   0.000    0.00
   1.400   21.71    8.67   -3.01   0.000   0.200   0.000    0.00
   1.450   22.32    4.51   -2.35   0.000   0.200   0.000    0.00
   1.500   22.77    5.55   -3.18   0.000   0.200   0.000    0.00
   1.550   22.37    2.86   -2.74   0.000   0.200   0.000    0.00
   1.600   22.04    0.81   -2.42   0.000   0.200   0.000    0.00
   1.650   21.21    1.07   -3.25   0.000   0.200   0.000    0.00
   1.700   21.98    3.64   -3.58   0.000   0.200   0.000    0.00
   1.750   21.40    1.77   -3.28   0.000   0.200   0.000    0.00
   1.800   21.56   -0.28   -3.88   0.000   0.200   0.000    0.00
   1.850   20.93    2.44   -4.38   0.000   0.200   0.000    0.00
   1.900   21.17    2.31   -3.66   0.000   0.200   0.000    0.00
   1.950   21.29   -1.28   -2.86   0.000   0.200   0.000    0.00
   2.000   20.65   -3.17   -1.82   0.000   0.200   0.000    0.00
   2.050   20.41   -3.67   -2.85   0.000   0.200   0.000    0.00
   2.100   22.45   -2.33   -1.65   0.000   0.200   0.000    0.00
   2.150   21.94    1.59   -1.37   0.000   0.200   0.000    0.00
   2.200   20.58    5.47   -1.51   0.000   0.200   0.000    0.00
   2.250   19.81    3.30   -2.36   0.000   0.200   0.000    0.00
   2.300   20.40    7.62   -3.01   0.000   0.200   0.000    0.00
   2.350   19.94   10.06   -3.56   0.000   0.200   0.000    0.00
   2.400   19.45   13.72   -3.72   0.000   0.200   0.000    0.00
   2.450   20.22   17.27   -2.94   0.000   0.200   0.000    0.00
   2.500   19.08   12.10   -3.10   0.000   0.200   0.000    0.00
   2.550   18.28   13.21   -3.34   0.000   0.200   0.000    0.00
   2.600   20.21   15.21   -3.31   0.000   0.200   0.000    0.00
   2.650   20.38   13.64   -3.05   0.000   0.200   0.000    0.00
   2.700   19.95   12.34   -3.38   0.000   0.200   0.000    0.00
   2.750   18.98   12.94   -3.50   0.000   0.200   0.000    0.00
   2.800   18.18   12.77   -2.66   0.000   0.200   0.000    0.00
   2.850   19.00    6.01   -3.76   0.000   0.200   0.000    0.00
   2.900   20.13    5.45   -4.58   0.000   0.200   0.000    0.00
   2.950   20.42    6.28   -3.88   0.000   0.200   0.000    0.00
   3.000   20.76    7.70   -4.12   0.000   0.200   0.000    0.00
   3.050   21.64    9.81   -4.32   0.000   0.200   0.000    0.00
   3.100   20.25   11.98   -3.17   0.000   0.200   0.000    0.00
   3.150   19.42   10.20   -2.02   0.000   0.200   0.000    0.00
   3.200   19.37   11.06   -3.18   0.000   0.200   0.000    0.00
   3.250   19.42    8.05   -3.68   0.000   0.200   0.000    0.00
   3.300   17.29    5.88   -4.15   0.000   0.200   0.000    0.00
   3.350   18.17    6.51   -4.31   0.000   0.200   0.000    0.00
   3.400   19.12    7.63   -4.26   0.000   0.200   0.000    0.00
   3.450   18.70    7.38   -3.72   0.000   0.200   0.000    0.00
   3.500   19.00    7.03   -3.81   0.000   0.200   0.000    0.00
   3.550   18.55    9.80   -3.89   0.000   0.200   0.000    0.00
   3.600   18.58   12.01   -4.38   0.000   0.200   0.000    0.00
   3.650   18.37   16.72   -3.46   0.000   0.200   0.000    0.00
   3.700   18.08   20.21   -2.49   0.000   0.200   0.000    0.00
   3.750   17.30   17.12   -0.58   0.000   0.200   0.000    0.00
   3.800   16.61   19.64   -1.40   0.000   0.200   0.000    0.00
   3.850   16.65   17.16    0.00   0.000   0.200   0.000    0.00
   3.900   16.20   15.77    0.84   0.000   0.200   0.000    0.00
   3.950   16.73   18.22    0.51   0.000   0.200   0.000    0.00
   4.000   16.91   11.80    0.81   0.000   0.200   0.000    0.00
   4.050   17.12   13.63    2.15   0.000   0.200   0.000    0.00
   4.100   16.35   16.11    2.11   0.000   0.200   0.000    0.00
   4.150   16.36   12.28    2.12   0.000   0.200   0.000    0.00
   4.200   17.35    9.45    2.19   0.000   0.200   0.000    0.00
   4.250   17.41   12.38    1.87   0.000   0.200   0.000    0.00
   4.300   16.60   13.33    2.65   0.000   0.200   0.000    0.00
   4.350   15.52    9.42    2.20   0.000   0.200   0.000    0.00
   4.400   16.07   11.71    2.15   0.000   0.200   0.000    0.00
   4.450   16.89    9.53    0.88   0.000   0.200   0.000    0.00
   4.500   17.39    6.77    0.15   0.000   0.200   0.000    0.00
   4.550   16.60    5.94    0.90   0.000   0.200   0.000    0.00
   4.600   17.91    7.15    1.18   0.000   0.200   0.000    0.00
   4.650   17.88    0.79    0.43   0.000   0.200   0.000    0.00
   4.700   17.45    1.07    0.46   0.000   0.200   0.000    0.00
   4.750   15.66    1.02    0.96   0.000   0.200   0.000    0.00
   4.800   15.90   -4.44    0.35   0.000   0.200   0.000    0.00
   4.850   15.78   -6.49   -1.23   0.000   0.200   0.000    0.00
   4.900   15.46   -5.81   -0.96   0.000   0.200   0.000    0.00
   4.950   16.27    3.68   -0.35   0.000   0.200   0.000    0.00
   5.000   17.37    3.84   -1.11   0.000   0.200   0.000    0.00
   5.050   17.11    7.14   -0.09   0.000   0.200   0.000    0.00
   5.100   16.36   10.52   -1.03   0.000   0.200   0.000    0.00
   5.150   16.98    7.17   -1.50   0.000   0.200   0.000    0.00
   5.200   17.42    7.36   -0.30   0.000   0.200   0.000    0.00
   5.250   17.27    5.44   -0.03   0.000   0.200   0.000    0.00
   5.300   17.40    4.38    0.59   0.000   0.200   0.000    0.00
   5.350   17.56    8.78   -0.99   0.000   0.200   0.000    0.00
   5.400   16.68    6.40   -1.69   0.000   0.200   0.000    0.00
   5.450   16.80   12.67   -1.07   0.000   0.200   0.000    0.00
   5.500   16.54   18.24   -2.04   0.000   0.200   0.000    0.00
   5.550   17.11   20.61   -2.36   0.000   0.200   0.000    0.00
   5.600   17.00   22.46   -1.81   0.000   0.200   0.000    0.00
   5.650   16.12   18.22   -0.70   0.000   0.200   0.000    0.00
   5.700   14.49   19.86   -0.87   0.000   0.200   0.000    0.00
   5.750   14.51   17.26   -1.06   0.000   0.200   0.000    0.00
   5.800   15.54   19.71   -1.82   0.000   0.200   0.000    0.00
   5.850   15.25   20.34   -0.40   0.000   0.200   0.000    0.00
   5.900   15.99   17.10    1.01   0.000   0.200   0.000    0.00
   5.950   15.49   12.75    0.60   0.000   0.200   0.000    0.00
   6.000   14.52    8.42    0.20   0.000   0.200   0.000    0.00
   6.050   14.70    7.53    0.72   0.000   0.200   0.000    0.00
   6.100   14.16    8.07    1.20   0.000   0.200   0.000    0.00
   6.150   14.35    3.68   -0.59   0.000   0.200   0.000    0.00
   6.200   15.31   -1.05    1.11   0.000   0.200   0.000    0.00
   6.250   15.02    2.52    1.66   0.000   0.200   0.000    0.00
   6.300   15.17    3.93    0.74   0.000   0.200   0.000    0.00
   6.350   14.68   -3.11   -0.63   0.000   0.200   0.000    0.00
   6.400   15.46   -2.06   -0.65   0.000   0.200   0.000    0.00
   6.450   15.41   -3.05   -0.93   0.000   0.200   0.000    0.00
   6.500   15.85   -2.25   -0.72   0.000   0.200   0.000    0.00
   6.550   15.99    2.03   -0.39   0.000   0.200   0.000    0.00
   6.600   15.73    1.89   -0.94   0.000   0.200   0.000    0.00
   6.650   15.82   -2.27   -0.19   0.000   0.200   0.000    0.00
   6.700   15.99   -2.73   -0.73   0.000   0.200   0.000    0.00
   6.750   15.46   -1.61   -1.14   0.000   0.200   0.000    0.00
   6.800   16.04   -2.88   -0.31   0.000   0.200   0.000    0.00
   6.850   15.08    0.70   -1.19   0.000   0.200   0.000    0.00
   6.900   15.45    0.52   -0.65   0.000   0.200   0.000    0.00
   6.950   15.45    0.74    0.14   0.000   0.200   0.000    0.00
   7.000   16.04   -0.70    0.56   0.000   0.200   0.000    0.00
   7.050   15.95    0.70   -0.90   0.000   0.200   0.000    0.00
   7.100   16.28    0.74   -0.37   0.000   0.200   0.000    0.00
   7.150   16.31    0.47   -0.52   0.000   0.200   0.000    0.00
   7.200   16.11   -2.70    0.58   0.000   0.200   0.000    0.00
   7.250   16.50   -1.78    1.32   0.000   0.200   0.000    0.00
   7.300   17.96    3.70    1.66   0.000   0.200   0.000    0.00
   7.350   17.44    2.23   -0.23   0.000   0.200   0.000    0.00
   7.400   17.00    0.83    0.16   0.000   0.200   0.000    0.00
   7.450   17.04    2.67    0.05   0.000   0.200   0.000    0.00
   7.500   15.94    2.92   -0.30   0.000   0.200   0.000    0.00
   7.550   17.05   -1.37   -0.13   0.000   0.200   0.000    0.00
   7.600   16.66    1.33    1.70   0.000   0.200   0.000    0.00
   7.650   15.50   -0.64    2.29   0.000   0.200   0.000    0.00
   7.700   14.38   -3.78    0.27   0.000   0.200   0.000    0.00
   7.750   14.88   -3.59   -0.77   0.000   0.200   0.000    0.00
   7.800   15.30   -4.75    0.12   0.000   0.200   0.000    0.00
   7.850   14.94   -8.01   -0.23   0.000   0.200   0.000    0.00
   7.900   15.44   -6.40   -0.73   0.000   0.200   0.000    0.00
   7.950   15.74   -7.05   -1.96   0.000   0.200   0.000    0.00
   8.000   15.97   -7.77   -0.87   0.000   0.200   0.000    0.00
   8.050   16.16  -11.10   -1.01   0.000   0.200   0.000    0.00
   8.100   15.81   -9.64   -1.32   0.000   0.200   0.000    0.00
   8.150   16.85  -15.60   -0.29   0.000   0.200   0.000    0.00
   8.200   17.23   -7.19    0.12   0.000   0.200   0.000    0.00
   8.250   16.94   -2.29   -0.99   0.000   0.200   0.000    0.00
   8.300   17.47    0.94   -1.20   0.000   0.200   0.000    0.00
   8.350   19.25    2.47   -2.31   0.000   0.200   0.000    0.00
   8.400   19.82    1.31   -3.25   0.000   0.200   0.000    0.00
   8.450   19.35   -1.19   -2.16   0.000   0.200   0.000    0.00
   8.500   19.05   -4.98   -1.28   0.000   0.200   0.000    0.00
   8.550   18.13   -6.12   -0.71   0.000   0.200   0.000    0.00
   8.600   17.94   -7.65    0.08   0.000   0.200   0.000    0.00
   8.650   17.20   -7.10   -0.65   0.000   0.200   0.000    0.00
   8.700   17.36   -1.84   -1.23   0.000   0.200   0.000    0.00
   8.750   17.69   -0.15    0.20   0.000   0.200   0.000    0.00
   8.800   17.78   -4.93    1.29   0.000   0.200   0.000    0.00
   8.850   17.11    1.06    0.89   0.000   0.200   0.000    0.00
   8.900   16.83    4.68   -0.80   0.000   0.200   0.000    0.00
   8.950   16.47    3.57   -1.69   0.000   0.200   0.000    0.00
   9.000   16.90    5.53   -1.09   0.000   0.200   0.000    0.00
   9.050   17.58    6.95   -1.71   0.000   0.200   0.000    0.00
   9.100   16.92    5.78   -1.14   0.000   0.200   0.000    0.00
   9.150   17.25    1.21   -2.14   0.000   0.200   0.000    0.00
   9.200   17.51    5.83   -2.43   0.000   0.200   0.000    0.00
   9.250   17.03    1.32   -2.17   0.000   0.200   0.000    0.00
   9.300   17.47   -2.84   -1.49   0.000   0.200   0.000    0.00
   9.350   17.26   -2.59   -0.19   0.000   0.200   0.000    0.00
   9.400   17.30   -2.12   -0.13   0.000   0.200   0.000    0.00
   9.450   17.92   -4.69   -0.59   0.000   0.200   0.000    0.00
   9.500   18.81   -8.10   -1.28   0.000   0.200   0.000    0.00
   9.550   19.10  -15.22   -1.77   0.000   0.200   0.000    0.00
   9.600   19.40  -13.76   -3.41   0.000   0.200   0.000    0.00
   9.650   20.29  -14.19   -3.06   0.000   0.200   0.000    0.00
   9.700   20.57  -11.74   -3.23   0.000   0.200   0.000    0.00
   9.750   20.26   -8.68   -2.42   0.000   0.200   0.000    0.00
   9.800   19.58  -12.70   -3.27   0.000   0.200   0.000    0.00
   9.850   19.93  -11.24   -2.63   0.000   0.200   0.000    0.00
   9.900   20.55   -9.60   -1.25   0.000   0.200   0.000    0.00
   9.950   21.87   -7.15   -2.29   0.000   0.200   0.000    0.00
  10.000   21.75   -7.74   -3.58   0.000   0.200   0.000    0.00
  10.050   20.08   -5.64   -3.91   0.000   0.200   0.000    0.00
  10.100   19.83   -9.14   -3.39   0.000   0.200   0.000    0.00
  10.150   20.59  -11.17   -3.08   0.000   0.200   0.000    0.00
  10.200   19.32  -12.37   -3.29   0.000   0.200   0.000    0.00
  10.250   19.62  -16.30   -3.79   0.000   0.200   0.000    0.00
  10.300   19.76  -11.84   -3.38   0.000   0.200   0.000    0.00
  10.350   20.29  -10.18   -2.78   0.000   0.200   0.000    0.00
  10.400   19.02  -10.89   -1.64   0.000   0.200   0.000    0.00
  10.450   19.78  -10.01   -1.63   0.000   0.200   0.000    0.00
  10.500   20.71   -8.69    0.36   0.000   0.200   0.000    0.00
  10.550   20.10   -7.46    1.71   0.000   0.200   0.000    0.00
  10.600   20.93   -4.04    1.78   0.000   0.200   0.000    0.00
  10.650   20.53   -1.13    1.69   0.000   0.200   0.000    0.00
  10.700   19.64   -1.08    1.27   0.000   0.200   0.000    0.00
  10.750   18.48   -5.84    1.41   0.000   0.200   0.000    0.00
  10.800   19.03   -2.80    1.89   0.000   0.200   0.000    0.00
  10.850   20.50   -0.54    1.06   0.000   0.200   0.000    0.00
  10.900   22.04   -1.59    1.17   0.000   0.200   0.000    0.00
  10.950   19.77   -3.88    1.26   0.000   0.200   0.000    0.00
  11.000   21.05   -4.29    1.31   0.000   0.200   0.000    0.00
  11.050   22.25   -5.88    0.55   0.000   0.200   0.000    0.00
  11.100   22.94   -9.00    1.26   0.000   0.200   0.000    0.00
  11.150   21.69   -6.15    1.33   0.000   0.200   0.000    0.00
  11.200   22.75   -4.50    0.60   0.000   0.200   0.000    0.00
  11.250   20.67    2.50    0.39   0.000   0.200   0.000    0.00
  11.300   20.83    3.29   -0.24   0.000   0.200   0.000    0.00
  11.350   21.43    2.29   -0.91   0.000   0.200   0.000    0.00
  11.400   21.63    3.31    0.14   0.000   0.200   0.000    0.00
  11.450   22.01   -1.83   -0.45   0.000   0.200   0.000    0.00
  11.500   22.38   -2.09   -1.17   0.000   0.200   0.000    0.00
  11.550   22.76    0.03   -0.74   0.000   0.200   0.000    0.00
  11.600   23.69   -1.16   -1.08   0.000   0.200   0.000    0.00
  11.650   22.95   -1.53    0.18   0.000   0.200   0.000    0.00
  11.700   21.64   -0.65    0.00   0.000   0.200   0.000    0.00
  11.750   21.90   -1.22    1.56   0.000   0.200   0.000    0.00
  11.800   22.07   -1.48    1.73   0.000   0.200   0.000    0.00
  11.850   21.53   -0.89    2.32   0.000   0.200   0.000    0.00
  11.900   22.47    1.06    2.34   0.000   0.200   0.000    0.00
  11.950   21.48   -1.57    2.35   0.000   0.200   0.000    0.00
  12.000   20.78   -3.72    2.76   0.000   0.200   0.000    0.00
  12.050   21.76   -4.44    2.06   0.000   0.200   0.000    0.00
  12.100   21.84   -3.62    1.89   0.000   0.200   0.000    0.00
  12.150   21.96   -5.30    1.11   0.000   0.200   0.000    0.00
  12.200   21.02   -3.42    1.99   0.000   0.200   0.000    0.00
  12.250   19.61   -2.48    2.91   0.000   0.200   0.000    0.00
  12.300   20.68   -1.90    2.40   0.000   0.200   0.000    0.00
  12.350   20.07   -0.91    0.59   0.000   0.200   0.000    0.00
  12.400   18.28    2.05    0.17   0.000   0.200   0.000    0.00
  12.450   18.62   -0.87   -0.06   0.000   0.200   0.000    0.00
  12.500   17.83    0.37   -0.35   0.000   0.200   0.000    0.00
  12.550   17.77    2.61    0.71   0.000   0.200   0.000    0.00
  12.600   18.35    1.68    1.72   0.000   0.200   0.000    0.00
  12.650   17.90   -1.85    2.37   0.000   0.200   0.000    0.00
  12.700   17.88   -3.15    1.41   0.000   0.200   0.000    0.00
  12.750   18.26   -0.83    1.88   0.000   0.200   0.000    0.00
  12.800   18.81    0.58    1.10   0.000   0.200   0.000    0.00
  12.850   18.36    2.19    0.09   0.000   0.200   0.000    0.00
  12.900   17.92    0.41   -0.55   0.000   0.200   0.000    0.00
  12.950   17.45    0.90    0.36   0.000   0.200   0.000    0.00
  13.000   18.48    0.23    1.26   0.000   0.200   0.000    0.00
  13.050   19.48    2.56    0.92   0.000   0.200   0.000    0.00
  13.100   19.43    0.34   -0.03   0.000   0.200   0.000    0.00
  13.150   19.46    1.42   -0.37   0.000   0.200   0.000    0.00
  13.200   19.96    1.78   -1.43   0.000   0.200   0.000    0.00
  13.250   19.24   -5.24   -1.73   0.000   0.200   0.000    0.00
  13.300   18.71  -10.05   -1.28   0.000   0.200   0.000    0.00
  13.350   18.80   -7.96   -1.19   0.000   0.200   0.000    0.00
  13.400   19.56   -3.86   -0.61   0.000   0.200   0.000    0.00
  13.450   20.24   -6.24   -0.10   0.000   0.200   0.000    0.00
  13.500   20.04   -7.75   -0.49   0.000   0.200   0.000    0.00
  13.550   18.46   -6.29   -0.78   0.000   0.200   0.000    0.00
  13.600   17.08   -4.85   -0.94   0.000   0.200   0.000    0.00
  13.650   17.57   -3.60   -1.38   0.000   0.200   0.000    0.00
  13.700   18.02  -11.36    0.46   0.000   0.200   0.000    0.00
  13.750   19.72   -9.48   -0.67   0.000   0.200   0.000    0.00
  13.800   19.31  -10.04   -2.21   0.000   0.200   0.000    0.00
  13.850   19.80   -8.77   -1.27   0.000   0.200   0.000    0.00
  13.900   20.36   -5.26   -0.92   0.000   0.200   0.000    0.00
  13.950   19.75   -6.31   -1.73   0.000   0.200   0.000    0.00
  14.000   20.03   -8.41   -2.16   0.000   0.200   0.000    0.00
  14.050   19.59   -3.06   -1.15   0.000   0.200   0.000    0.00
  14.100   19.53   -4.22   -1.07   0.000   0.200   0.000    0.00
  14.150   18.92   -7.22   -1.67   0.000   0.200   0.000    0.00
  14.200   19.77   -9.23   -0.25   0.000   0.200   0.000    0.00
  14.250   19.86   -8.75   -0.11   0.000   0.200   0.000    0.00
  14.300   20.41   -8.61   -0.80   0.000   0.200   0.000    0.00
  14.350   19.47  -10.26   -1.19   0.000   0.200   0.000    0.00
  14.400   19.79   -7.47   -1.29   0.000   0.200   0.000    0.00
  14.450   19.70  -10.81    0.68   0.000   0.200   0.000    0.00
  14.500   20.02  -17.27    1.07   0.000   0.200   0.000    0.00
  14.550   20.18  -16.95    1.09   0.000   0.200   0.000    0.00
  14.600   19.30  -17.68    0.92   0.000   0.200   0.000    0.00
  14.650   19.10  -18.57    1.57   0.000   0.200   0.000    0.00
  14.700   19.47  -20.07    2.09   0.000   0.200   0.000    0.00
  14.750   18.95  -20.19    2.30   0.000   0.200   0.000    0.00
  14.800   17.83  -17.28    2.31   0.000   0.200   0.000    0.00
  14.850   19.03  -14.22    2.93   0.000   0.200   0.000    0.00
  14.900   19.46  -15.73    2.54   0.000   0.200   0.000    0.00
  14.950   17.91  -14.66    1.98   0.000   0.200   0.000    0.00
  15.000   17.78  -15.92    1.98   0.000   0.200   0.000    0.00
  15.050   17.84  -18.31    2.68   0.000   0.200   0.000    0.00
  15.100   18.59  -22.33    2.03   0.000   0.200   0.000    0.00
  15.150   18.37  -22.64    2.96   0.000   0.200   0.000    0.00
  15.200   17.63  -22.95    2.07   0.000   0.200   0.000    0.00
  15.250   16.57  -18.00    3.01   0.000   0.200   0.000    0.00
  15.300   17.17  -17.33    2.76   0.000   0.200   0.000    0.00
  15.350   18.71  -15.57    1.42   0.000   0.200   0.000    0.00
  15.400   17.50  -15.32    1.81   0.000   0.200   0.000    0.00
  15.450   18.08  -15.41    1.98   0.000   0.200   0.000    0.00
  15.500   17.63  -12.84    1.31   0.000   0.200   0.000    0.00
  15.550   17.59  -11.78   -0.03   0.000   0.200   0.000    0.00
  15.600   17.20  -10.18   -1.13   0.000   0.200   0.000    0.00
  15.650   16.85   -7.06    0.79   0.000   0.200   0.000    0.00
  15.700   17.19   -8.54    1.00   0.000   0.200   0.000    0.00
  15.750   17.92   -6.57    0.74   0.000   0.200   0.000    0.00
  15.800   17.66   -7.94    1.21   0.000   0.200   0.000    0.00
  15.850   16.87  -16.58   -0.13   0.000   0.200   0.000    0.00
  15.900   15.95  -19.01   -0.30   0.000   0.200   0.000    0.00
  15.950   17.68  -20.56   -0.51   0.000   0.200   0.000    0.00
  16.000   18.23  -18.04   -0.18   0.000   0.200   0.000    0.00
  16.050   18.07  -21.83    0.17   0.000   0.200   0.000    0.00
  16.100   17.11  -24.95    0.33   0.000   0.200   0.000    0.00
  16.150   17.86  -22.15    0.41   0.000   0.200   0.000    0.00
  16.200   18.59  -19.34    0.27   0.000   0.200   0.000    0.00
  16.250   18.74  -18.32    0.92   0.000   0.200   0.000    0.00
  16.300   17.94  -17.64    0.81   0.000   0.200   0.000    0.00
  16.350   17.46  -22.05   -0.28   0.000   0.200   0.000    0.00
  16.400   18.27  -21.08    1.14   0.000   0.200   0.000    0.00
  16.450   18.37  -17.34    0.41   0.000   0.200   0.000    0.00
  16.500   17.74  -18.69    0.00   0.000   0.200   0.000    0.00
  16.550   18.39  -17.66    0.29   0.000   0.200   0.000    0.00
  16.600   18.47  -20.26   -0.09   0.000   0.200   0.000    0.00
  16.650   18.47  -25.38   -0.29   0.000   0.200   0.000    0.00
  16.700   19.45  -25.00   -0.66   0.000   0.200   0.000    0.00
  16.750   21.36  -24.41   -0.63   0.000   0.200   0.000    0.00
  16.800   20.27  -25.84   -1.57   0.000   0.200   0.000    0.00
  16.850   19.10  -22.90   -1.23   0.000   0.200   0.000    0.00
  16.900   18.62  -16.52   -1.06   0.000   0.200   0.000    0.00
  16.950   18.27  -18.26   -0.55   0.000   0.200   0.000    0.00
  17.000   18.31  -18.33   -1.11   0.000   0.200   0.000    0.00
  17.050   18.92  -15.12   -2.66   0.000   0.200   0.000    0.00
  17.100   18.63  -14.64   -2.14   0.000   0.200   0.000    0.00
  17.150   19.17  -16.84   -1.83   0.000   0.200   0.000    0.00
  17.200   19.91  -19.75   -0.95   0.000   0.200   0.000    0.00
  17.250   20.05  -22.07   -1.13   0.000   0.200   0.000    0.00
  17.300   20.75  -19.94   -1.24   0.000   0.200   0.000    0.00
  17.350   19.60  -22.80   -0.83   0.000   0.200   0.000    0.00
  17.400   18.87  -24.05   -0.80   0.000   0.200   0.000    0.00
  17.450   18.37  -21.74   -0.48   0.000   0.200   0.000    0.00
  17.500   17.12  -18.33   -0.01   0.000   0.200   0.000    0.00
  17.550   18.04  -17.69    0.42   0.000   0.200   0.000    0.00
  17.600   18.39  -15.26   -0.02   0.000   0.200   0.000    0.00
  17.650   18.51  -16.13    1.09   0.000   0.200   0.000    0.00
  17.700   17.55  -18.89    1.65   0.000   0.200   0.000    0.00
  17.750   17.56  -13.64    1.48   0.000   0.200   0.000    0.00
  17.800   18.14  -11.99    2.27   0.000   0.200   0.000    0.00
  17.850   18.98  -14.43    1.93   0.000   0.200   0.000    0.00
  17.900   18.47  -15.15    2.84   0.000   0.200   0.000    0.00
  17.950   19.67  -16.43    3.57   0.000   0.200   0.000    0.00
  18.000   20.81  -18.26    2.15   0.000   0.200   0.000    0.00
  18.050   21.35  -17.65    0.85   0.000   0.200   0.000    0.00
  18.100   21.58  -13.58    0.96   0.000   0.200   0.000    0.00
  18.150   22.22  -17.16    0.50   0.000   0.200   0.000    0.00
  18.200   23.09  -17.14   -1.36   0.000   0.200   0.000    0.00
  18.250   22.61  -15.69   -0.87   0.000   0.200   0.000    0.00
  18.300   21.81  -17.34   -0.79   0.000   0.200   0.000    0.00
  18.350   20.81  -17.60   -1.14   0.000   0.200   0.000    0.00
  18.400   20.80  -16.94   -0.79   0.000   0.200   0.000    0.00
  18.450   21.71  -16.30   -0.76   0.000   0.200   0.000    0.00
  18.500   21.38  -15.91   -0.50   0.000   0.200   0.000    0.00
  18.550   22.14  -14.33   -1.32   0.000   0.200   0.000    0.00
  18.600   21.55  -14.26    0.08   0.000   0.200   0.000    0.00
  18.650   23.03  -12.76    0.33   0.000   0.200   0.000    0.00
  18.700   23.38  -17.36    0.48   0.000   0.200   0.000    0.00
  18.750   23.07  -19.67    0.71   0.000   0.200   0.000    0.00
  18.800   24.00  -19.91    0.53   0.000   0.200   0.000    0.00
  18.850   23.04  -15.03   -0.14   0.000   0.200   0.000    0.00
  18.900   22.23  -14.34   -1.06   0.000   0.200   0.000    0.00
  18.950   22.21  -17.47   -0.03   0.000   0.200   0.000    0.00
  19.000   21.36  -16.60    0.53   0.000   0.200   0.000    0.00
  19.050   22.10  -15.90    0.46   0.000   0.200   0.000    0.00
  19.100   22.14  -16.65   -0.10   0.000   0.200   0.000    0.00
  19.150   22.38  -17.39   -0.50   0.000   0.200   0.000    0.00
  19.200   22.54  -18.47   -0.29   0.000   0.200   0.000    0.00
  19.250   22.88  -15.21    0.27   0.000   0.200   0.000    0.00
  19.300   23.49  -19.22   -0.29   0.000   0.200   0.000    0.00
  19.350   22.16  -21.25    0.10   0.000   0.200   0.000    0.00
  19.400   23.16  -19.29   -0.29   0.000   0.200   0.000    0.00
  19.450   22.76  -20.14   -0.98   0.000   0.200   0.000    0.00
  19.500   22.59  -22.04   -1.37   0.000   0.200   0.000    0.00
  19.550   20.77  -22.15   -2.52   0.000   0.200   0.000    0.00
  19.600   20.33  -18.98   -1.65   0.000   0.200   0.000    0.00
  19.650   20.34  -16.76   -3.44   0.000   0.200   0.000    0.00
  19.700   20.77  -15.07   -3.29   0.000   0.200   0.000    0.00
  19.750   21.17  -15.83   -3.27   0.000   0.200   0.000    0.00
  19.800   21.11  -17.22   -2.21   0.000   0.200   0.000    0.00
  19.850   21.15  -15.70   -0.43   0.000   0.200   0.000    0.00
  19.900   21.34  -14.99   -0.70   0.000   0.200   0.000    0.00
  19.950   22.13  -15.74   -0.72   0.000   0.200   0.000    0.00
  20.000   22.06  -16.19    0.47   0.000   0.200   0.000    0.00
  20.050   21.96  -15.36    0.08   0.000   0.200   0.000    0.00
  20.100   22.12  -15.95   -0.81   0.000   0.200   0.000    0.00
  20.150   21.31  -15.47   -2.04   0.000   0.200   0.000    0.00
  20.200   20.92  -16.64   -0.70   0.000   0.200   0.000    0.00
  20.250   20.88  -14.16   -0.11   0.000   0.200   0.000    0.00
  20.300   20.59  -12.29   -0.49   0.000   0.200   0.000    0.00
  20.350   21.42  -13.37   -0.25   0.000   0.200   0.000    0.00
  20.400   21.25   -9.66   -1.10   0.000   0.200   0.000    0.00
  20.450   20.80  -13.91   -1.65   0.000   0.200   0.000    0.00
  20.500   19.86  -18.76   -1.21   0.000   0.200   0.000    0.00
  20.550   18.92  -16.95   -0.67   0.000   0.200   0.000    0.00
  20.600   18.96  -15.03    0.06   0.000   0.200   0.000    0.00
  20.650   18.31  -10.10    0.03   0.000   0.200   0.000    0.00
  20.700   18.22   -8.15   -0.33   0.000   0.200   0.000    0.00
  20.750   19.71  -13.38   -0.29   0.000   0.200   0.000    0.00
  20.800   19.66  -12.90    0.69   0.000   0.200   0.000    0.00
  20.850   19.22  -15.30    0.04   0.000   0.200   0.000    0.00
  20.900   20.06  -13.64   -0.05   0.000   0.200   0.000    0.00
  20.950   21.51  -10.46    0.04   0.000   0.200   0.000    0.00
  21.000   20.51   -9.37   -0.70   0.000   0.200   0.000    0.00
  21.050   21.25   -8.81   -0.57   0.000   0.200   0.000    0.00
  21.100   20.53   -7.80   -1.12   0.000   0.200   0.000    0.00
  21.150   21.22  -11.53   -1.59   0.000   0.200   0.000    0.00
  21.200   20.76  -13.65   -1.28   0.000   0.200   0.000    0.00
  21.250   20.67  -11.46   -1.11   0.000   0.200   0.000    0.00
  21.300   21.31   -9.96   -2.71   0.000   0.200   0.000    0.00
  21.350   21.71   -5.56   -4.01   0.000   0.200   0.000    0.00
  21.400   22.56   -5.16   -3.81   0.000   0.200   0.000    0.00
  21.450   22.72   -8.54   -2.35   0.000   0.200   0.000    0.00
  21.500   21.61   -9.18   -2.83   0.000   0.200   0.000    0.00
  21.550   21.65   -9.36   -2.71   0.000   0.200   0.000    0.00
  21.600   21.82   -7.07   -2.23   0.000   0.200   0.000    0.00
  21.650   22.38   -5.75   -3.61   0.000   0.200   0.000    0.00
  21.700   21.42   -4.81   -3.41   0.000   0.200   0.000    0.00
  21.750   21.39   -4.81   -1.98   0.000   0.200   0.000    0.00
  21.800   20.14   -6.55   -1.44   0.000   0.200   0.000    0.00
  21.850   20.02   -4.08   -1.30   0.000   0.200   0.000    0.00
  21.900   20.40   -3.41   -1.36   0.000   0.200   0.000    0.00
  21.950   20.57   -2.05   -2.15   0.000   0.200   0.000    0.00
  22.000   20.71   -2.36   -0.93   0.000   0.200   0.000    0.00
  22.050   21.76   -3.12   -0.73   0.000   0.200   0.000    0.00
  22.100   21.78   -2.60   -1.99   0.000   0.200   0.000    0.00
  22.150   22.76   -5.61   -2.02   0.000   0.200   0.000    0.00
  22.200   23.40   -5.91   -2.06   0.000   0.200   0.000    0.00
  22.250   23.13   -6.68   -1.34   0.000   0.200   0.000    0.00
  22.300   22.78   -9.73   -1.76   0.000   0.200   0.000    0.00
  22.350   22.89   -8.95   -1.85   0.000   0.200   0.000    0.00