! This hub-height wind-speed file was generated by TurbSim (v1.06.00, 21-Sep-2012) on 03-Feb-2018 at 23:35:25.
!
! The requested statistics for this data were:
!    Mean Total Wind Speed =   11.000 m/s
!    Turbulence Intensity  =   27.654%
!
!   Time  HorSpd  WndDir  VerSpd  HorShr  VerShr  LnVShr  GstSpd
!  (sec)   (m/s)   (deg)   (m/s)     (-)     (-)     (-)   (m/s)
   0.000   10.85   -2.68   -1.57   0.000   0.200   0.000    0.00
   0.050   11.13   -2.45   -1.64   0.000   0.200   0.000    0.00
   0.100   10.45    2.19   -1.44   0.000   0.200   0.000    0.00
   0.150    9.98    2.52   -1.57   0.000   0.200   0.000    0.00
   0.200   10.36    7.00   -2.13   0.000   0.200   0.000    0.00
   0.250    9.77   12.13   -3.07   0.000   0.200   0.000    0.00
   0.300   10.09   11.71   -2.04   0.000   0.200   0.000    0.00
   0.350    9.87   10.13   -1.50   0.000   0.200   0.000    0.00
   0.400    9.22    7.62   -1.95   0.000   0.200   0.000    0.00
   0.450    9.71    5.63   -2.17   0.000   0.200   0.000    0.00
   0.500   10.29    2.30   -1.62   0.000   0.200   0.000    0.00
   0.550   10.35   -0.30   -1.58   0.000   0.200   0.000    0.00
   0.600   10.45    3.35   -2.01   0.000   0.200   0.000    0.00
   0.650   10.91    9.33   -1.62   0.000   0.200   0.000    0.00
   0.700   11.09   11.72   -1.58   0.000   0.200   0.000    0.00
   0.750   10.87    8.62   -1.07   0.000   0.200   0.000    0.00
   0.800   10.89   10.62   -0.67   0.000   0.200   0.000    0.00
   0.850   11.57    8.00   -1.40   0.000   0.200   0.000    0.00
   0.900   11.85   11.55   -1.92   0.000   0.200   0.000    0.00
   0.950   12.21    7.84   -1.37   0.000   0.200   0.000    0.00
   1.000   11.89    9.70   -0.34   0.000   0.200   0.000    0.00
   1.050   10.66   15.72   -0.07   0.000   0.200   0.000    0.00
   1.100   10.95   15.99   -0.88   0.000   0.200   0.000    0.00
   1.150   11.26   14.47   -0.91   0.000   0.200   0.000    0.00
   1.200   11.70   11.97   -1.06   0.000   0.200   0.000    0.00
   1.250   11.30    9.16   -0.46   0.000   0.200   0.000    0.00
   1.300   10.87    7.44    0.32   0.000   0.200   0.000    0.00
   1.350   11.50    6.77    0.48   0.000   0.200   0.000    0.00
   1.400   11.79    6.93    0.35   0.000   0.200   0.000    0.00
   1.450   12.08    3.53    0.29   0.000   0.200   0.000    0.00
   1.500   11.12    3.13   -0.18   0.000   0.200   0.000    0.00
   1.550   11.00    6.54   -0.50   0.000   0.200   0.000    0.00
   1.600   10.71    5.74   -0.03   0.000   0.200   0.000    0.00
   1.650   10.55    2.36   -0.03   0.000   0.200   0.000    0.00
   1.700   10.29    2.42   -0.15   0.000   0.200   0.000    0.00
   1.750   10.13    5.91   -1.06   0.000   0.200   0.000    0.00
   1.800   10.16    5.39   -2.07   0.000   0.200   0.000    0.00
   1.850   10.22    0.89   -2.63   0.000   0.200   0.000    0.00
   1.900   10.41   -3.00   -2.11   0.000   0.200   0.000    0.00
   1.950   10.38    1.38   -2.04   0.000   0.200   0.000    0.00
   2.000   10.29    0.04   -1.77   0.000   0.200   0.000    0.00
   2.050    9.51   -0.08   -1.74   0.000   0.200   0.000    0.00
   2.100    9.15   -3.24   -1.83   0.000   0.200   0.000    0.00
   2.150   10.13   -5.18   -2.13   0.000   0.200   0.000    0.00
   2.200   10.16   -3.18   -0.53   0.000   0.200   0.000    0.00
   2.250    9.75   -1.83   -1.45   0.000   0.200   0.000    0.00
   2.300   10.28   -3.56   -1.40   0.000   0.200   0.000    0.00
   2.350   10.76   -0.50   -1.81   0.000   0.200   0.000    0.00
   2.400   11.06   -2.64   -1.75   0.000   0.200   0.000    0.00
   2.450   11.22   -3.67   -1.37   0.000   0.200   0.000    0.00
   2.500   11.45   -8.67   -1.60   0.000   0.200   0.000    0.00
   2.550   12.00   -6.28   -1.70   0.000   0.200   0.000    0.00
   2.600   11.99   -5.24   -1.40   0.000   0.200   0.000    0.00
   2.650   12.25   -4.54   -1.64   0.000   0.200   0.000    0.00
   2.700   12.45   -5.77   -2.05   0.000   0.200   0.000    0.00
   2.750   11.89   -6.48   -2.64   0.000   0.200   0.000    0.00
   2.800   12.48   -6.49   -2.96   0.000   0.200   0.000    0.00
   2.850   12.58   -8.87   -2.48   0.000   0.200   0.000    0.00
   2.900   12.16  -10.57   -3.81   0.000   0.200   0.000    0.00
   2.950   12.96  -11.56   -4.42   0.000   0.200   0.000    0.00
   3.000   12.35   -9.22   -4.07   0.000   0.200   0.000    0.00
   3.050   12.84   -8.92   -2.56   0.000   0.200   0.000    0.00
   3.100   12.56   -9.55   -2.43   0.000   0.200   0.000    0.00
   3.150   11.91  -11.69   -3.56   0.000   0.200   0.000    0.00
   3.200   11.11  -10.58   -2.51   0.000   0.200   0.000    0.00
   3.250   11.05   -8.89   -2.45   0.000   0.200   0.000    0.00
   3.300   11.08   -8.05   -2.33   0.000   0.200   0.000    0.00
   3.350   10.52   -6.89   -2.40   0.000   0.200   0.000    0.00
   3.400   10.07   -4.26   -2.39   0.000   0.200   0.000    0.00
   3.450    9.30   -4.83   -2.96   0.000   0.200   0.000    0.00
   3.500    9.03   -3.64   -2.15   0.000   0.200   0.000    0.00
   3.550    9.44   -2.36   -2.16   0.000   0.200   0.000    0.00
   3.600    9.04   -2.97   -2.30   0.000   0.200   0.000    0.00
   3.650    9.47   -0.81   -2.39   0.000   0.200   0.000    0.00
   3.700   10.00   -2.24   -1.91   0.000   0.200   0.000    0.00
   3.750    9.75   -2.53   -1.62   0.000   0.200   0.000    0.00
   3.800    9.02   -2.56   -2.18   0.000   0.200   0.000    0.00
   3.850    9.76    1.15   -1.86   0.000   0.200   0.000    0.00
   3.900    9.52    3.08   -1.36   0.000   0.200   0.000    0.00
   3.950    9.30    2.36   -1.16   0.000   0.200   0.000    0.00
   4.000    8.93    1.41   -0.65   0.000   0.200   0.000    0.00
   4.050    9.29    7.93    0.04   0.000   0.200   0.000    0.00
   4.100   10.20    5.15    0.10   0.000   0.200   0.000    0.00
   4.150   10.63    9.15   -0.28   0.000   0.200   0.000    0.00
   4.200   10.82   12.31   -0.34   0.000   0.200   0.000    0.00
   4.250    9.67    9.22   -0.60   0.000   0.200   0.000    0.00
   4.300    9.98   11.40   -0.36   0.000   0.200   0.000    0.00
   4.350    9.77    8.72   -0.18   0.000   0.200   0.000    0.00
   4.400    9.45    8.68   -0.92   0.000   0.200   0.000    0.00
   4.450    9.09    7.07    0.13   0.000   0.200   0.000    0.00
   4.500    9.64    7.63   -0.60   0.000   0.200   0.000    0.00
   4.550    8.67    8.19   -1.20   0.000   0.200   0.000    0.00
   4.600    8.69    6.52   -0.72   0.000   0.200   0.000    0.00
   4.650    9.18    8.10   -1.90   0.000   0.200   0.000    0.00
   4.700    8.60    5.61   -1.62   0.000   0.200   0.000    0.00
   4.750    8.57    6.89   -2.05   0.000   0.200   0.000    0.00
   4.800    8.89    7.35   -1.81   0.000   0.200   0.000    0.00
   4.850    9.04    9.81   -0.94   0.000   0.200   0.000    0.00
   4.900    9.73    2.90   -0.25   0.000   0.200   0.000    0.00
   4.950   10.23    9.24    0.61   0.000   0.200   0.000    0.00
   5.000    9.94   11.45   -0.18   0.000   0.200   0.000    0.00
   5.050   10.07    8.57   -0.21   0.000   0.200   0.000    0.00
   5.100    9.88    9.76    0.15   0.000   0.200   0.000    0.00
   5.150    9.68   13.66    0.95   0.000   0.200   0.000    0.00
   5.200    9.70   19.05    0.82   0.000   0.200   0.000    0.00
   5.250    9.57   12.80    1.27   0.000   0.200   0.000    0.00
   5.300    9.38    7.76    0.91   0.000   0.200   0.000    0.00
   5.350    9.95   12.28    0.19   0.000   0.200   0.000    0.00
   5.400    9.52    6.71    0.01   0.000   0.200   0.000    0.00
   5.450    9.97    7.78    0.55   0.000   0.200   0.000    0.00
   5.500   10.42    5.86    0.35   0.000   0.200   0.000    0.00
   5.550    9.94    4.71   -0.69   0.000   0.200   0.000    0.00
   5.600    9.43    5.73    0.28   0.000   0.200   0.000    0.00
   5.650    9.32    3.40    0.88   0.000   0.200   0.000    0.00
   5.700    8.74    5.04    0.77   0.000   0.200   0.000    0.00
   5.750    8.63   12.13    0.69   0.000   0.200   0.000    0.00
   5.800    9.61    8.86    0.69   0.000   0.200   0.000    0.00
   5.850    8.92    6.76    1.30   0.000   0.200   0.000    0.00
   5.900    8.19    9.60    0.87   0.000   0.200   0.000    0.00
   5.950    8.54    3.92    0.90   0.000   0.200   0.000    0.00
   6.000    8.20    9.98    0.83   0.000   0.200   0.000    0.00
   6.050    8.80    8.90    0.46   0.000   0.200   0.000    0.00
   6.100    9.16   12.12    0.23   0.000   0.200   0.000    0.00
   6.150    9.08    8.90    0.86   0.000   0.200   0.000    0.00
   6.200    8.59    7.42    0.61   0.000   0.200   0.000    0.00
   6.250    9.10    5.87   -0.26   0.000   0.200   0.000    0.00
   6.300    8.43   11.26    0.10   0.000   0.200   0.000    0.00
   6.350    8.16   18.87    0.19   0.000   0.200   0.000    0.00
   6.400    8.12   13.54    0.38   0.000   0.200   0.000    0.00
   6.450    7.30   13.67   -0.60   0.000   0.200   0.000    0.00
   6.500    8.67   10.07   -0.27   0.000   0.200   0.000    0.00
   6.550    8.87   11.16    0.18   0.000   0.200   0.000    0.00
   6.600    9.54   13.29    0.02   0.000   0.200   0.000    0.00
   6.650    9.59    9.28   -0.31   0.000   0.200   0.000    0.00
   6.700    9.60    2.05   -0.48   0.000   0.200   0.000    0.00
   6.750    8.90   -2.09    0.46   0.000   0.200   0.000    0.00
   6.800    8.08   -2.59   -0.01   0.000   0.200   0.000    0.00
   6.850    8.39    3.39    0.76   0.000   0.200   0.000    0.00
   6.900    8.76    0.20    1.16   0.000   0.200   0.000    0.00
   6.950    9.38    1.27    0.83   0.000   0.200   0.000    0.00
   7.000    9.47    2.93    0.98   0.000   0.200   0.000    0.00
   7.050    8.91    1.02    1.05   0.000   0.200   0.000    0.00
   7.100    8.75    2.49    1.54   0.000   0.200   0.000    0.00
   7.150    8.54   -0.19    2.36   0.000   0.200   0.000    0.00
   7.200    8.23    6.64    2.09   0.000   0.200   0.000    0.00
   7.250    8.00    2.88    1.94   0.000   0.200   0.000    0.00
   7.300    7.29    9.64    0.42   0.000   0.200   0.000    0.00
   7.350    6.87   10.58    0.65   0.000   0.200   0.000    0.00
   7.400    6.99   16.05    0.76   0.000   0.200   0.000    0.00
   7.450    6.76   11.73    0.78   0.000   0.200   0.000    0.00
   7.500    6.60   14.84    1.34   0.000   0.200   0.000    0.00
   7.550    6.26    1.94    0.52   0.000   0.200   0.000    0.00
   7.600    6.14   -1.02    0.28   0.000   0.200   0.000    0.00
   7.650    5.60    1.03    0.55   0.000   0.200   0.000    0.00
   7.700    5.49    5.85    0.59   0.000   0.200   0.000    0.00
   7.750    4.85    4.13    0.75   0.000   0.200   0.000    0.00
   7.800    4.97    3.66    0.02   0.000   0.200   0.000    0.00
   7.850    5.10    2.16    0.25   0.000   0.200   0.000    0.00
   7.900    5.93   -0.60    0.14   0.000   0.200   0.000    0.00
   7.950    6.85    1.00    0.52   0.000   0.200   0.000    0.00
   8.000    7.39   -0.43    0.14   0.000   0.200   0.000    0.00
   8.050    7.43   -0.47    0.27   0.000   0.200   0.000    0.00
   8.100    6.84   -0.75    1.30   0.000   0.200   0.000    0.00
   8.150    6.77    3.00    0.39   0.000   0.200   0.000    0.00
   8.200    7.18   -4.65   -0.05   0.000   0.200   0.000    0.00
   8.250    7.31   -8.18   -0.68   0.000   0.200   0.000    0.00
   8.300    6.66  -11.02   -0.86   0.000   0.200   0.000    0.00
   8.350    6.95  -13.43    0.22   0.000   0.200   0.000    0.00
   8.400    6.53  -11.15   -0.13   0.000   0.200   0.000    0.00
   8.450    7.13   -8.51   -0.53   0.000   0.200   0.000    0.00
   8.500    7.18   -7.35   -1.06   0.000   0.200   0.000    0.00
   8.550    7.19   -5.11   -0.39   0.000   0.200   0.000    0.00
   8.600    7.67   -1.53    0.08   0.000   0.200   0.000    0.00
   8.650    7.50   -2.28    0.37   0.000   0.200   0.000    0.00
   8.700    6.69    3.29    0.27   0.000   0.200   0.000    0.00
   8.750    6.93    3.78    0.30   0.000   0.200   0.000    0.00
   8.800    7.20    2.82   -0.48   0.000   0.200   0.000    0.00
   8.850    7.63   -1.87    0.03   0.000   0.200   0.000    0.00
   8.900    6.97    1.30    0.93   0.000   0.200   0.000    0.00
   8.950    7.02   -6.91    0.89   0.000   0.200   0.000    0.00
   9.000    6.47   -5.59    0.46   0.000   0.200   0.000    0.00
   9.050    6.18  -12.31   -0.07   0.000   0.200   0.000    0.00
   9.100    6.48  -13.09    0.22   0.000   0.200   0.000    0.00
   9.150    6.68  -13.90    0.59   0.000   0.200   0.000    0.00
   9.200    7.02   -9.27    1.24   0.000   0.200   0.000    0.00
   9.250    6.90  -12.48    1.37   0.000   0.200   0.000    0.00
   9.300    7.93  -14.21    0.44   0.000   0.200   0.000    0.00
   9.350    8.11  -10.33    0.87   0.000   0.200   0.000    0.00
   9.400    8.20  -11.71    0.32   0.000   0.200   0.000    0.00
   9.450    8.16   -3.37    0.11   0.000   0.200   0.000    0.00
   9.500    8.90   -6.97   -0.45   0.000   0.200   0.000    0.00
   9.550    7.83   -4.75    0.58   0.000   0.200   0.000    0.00
   9.600    8.48   -4.33    0.69   0.000   0.200   0.000    0.00
   9.650    9.08   -4.26    0.76   0.000   0.200   0.000    0.00
   9.700    9.27   -4.47    0.82   0.000   0.200   0.000    0.00
   9.750    8.99   -3.39    0.13   0.000   0.200   0.000    0.00
   9.800    9.21   -3.84    0.28   0.000   0.200   0.000    0.00
   9.850    9.34   -3.60   -0.24   0.000   0.200   0.000    0.00
   9.900    9.29   -4.83   -0.28   0.000   0.200   0.000    0.00
   9.950    9.22   -2.09    0.78   0.000   0.200   0.000    0.00
  10.000    9.26   -4.53    0.69   0.000   0.200   0.000    0.00
  10.050    9.51   -3.76    0.03   0.000   0.200   0.000    0.00
  10.100    9.89   -1.66    0.71   0.000   0.200   0.000    0.00
  10.150    9.96   -3.72    1.10   0.000   0.200   0.000    0.00
  10.200    9.64   -8.25    0.35   0.000   0.200   0.000    0.00
  10.250   10.07   -9.23    0.05   0.000   0.200   0.000    0.00
  10.300    9.39   -5.01    1.26   0.000   0.200   0.000    0.00
  10.350    9.69   -3.16    1.69   0.000   0.200   0.000    0.00
  10.400    9.31   -0.35    2.28   0.000   0.200   0.000    0.00
  10.450    8.67   -1.97    2.24   0.000   0.200   0.000    0.00
  10.500    8.86    0.21    1.87   0.000   0.200   0.000    0.00
  10.550    9.10   -1.27    1.53   0.000   0.200   0.000    0.00
  10.600    9.06   -2.35    1.44   0.000   0.200   0.000    0.00
  10.650    9.48    4.67    0.52   0.000   0.200   0.000    0.00
  10.700    9.25    3.29    0.44   0.000   0.200   0.000    0.00
  10.750    9.39    1.46    0.67   0.000   0.200   0.000    0.00
  10.800    9.72    0.41    0.85   0.000   0.200   0.000    0.00
  10.850    9.04    3.20    1.53   0.000   0.200   0.000    0.00
  10.900   10.08    1.67    1.67   0.000   0.200   0.000    0.00
  10.950   10.33    1.39    0.79   0.000   0.200   0.000    0.00
  11.000   10.48   -5.14    0.76   0.000   0.200   0.000    0.00
  11.050   11.07   -4.97    0.01   0.000   0.200   0.000    0.00
  11.100   11.71   -0.88   -0.20   0.000   0.200   0.000    0.00
  11.150   12.12   -4.43   -0.79   0.000   0.200   0.000    0.00
  11.200   11.54   -5.90   -0.34   0.000   0.200   0.000    0.00
  11.250   11.57   -4.51   -0.45   0.000   0.200   0.000    0.00
  11.300   11.10    0.10   -0.90   0.000   0.200   0.000    0.00
  11.350   10.51    0.86   -0.71   0.000   0.200   0.000    0.00
  11.400   11.20   -1.38   -0.53   0.000   0.200   0.000    0.00
  11.450   11.15   -1.13   -0.13   0.000   0.200   0.000    0.00
  11.500   10.80    0.92    0.17   0.000   0.200   0.000    0.00
  11.550   10.50    2.18   -0.43   0.000   0.200   0.000    0.00
  11.600   10.40    4.99    0.06   0.000   0.200   0.000    0.00
  11.650   10.96    9.19    0.49   0.000   0.200   0.000    0.00
  11.700   10.88    4.82    0.41   0.000   0.200   0.000    0.00
  11.750   11.12    3.73    0.52   0.000   0.200   0.000    0.00
  11.800   11.17    0.98    0.02   0.000   0.200   0.000    0.00
  11.850   10.84    0.45    0.18   0.000   0.200   0.000    0.00
  11.900   11.20    1.92    0.12   0.000   0.200   0.000    0.00
  11.950   11.43    4.70    0.69   0.000   0.200   0.000    0.00
  12.000   11.57    5.94    1.07   0.000   0.200   0.000    0.00
  12.050   11.77    5.74    1.24   0.000   0.200   0.000    0.00
  12.100   11.24    6.57    1.88   0.000   0.200   0.000    0.00
  12.150   11.93    4.00    1.50   0.000   0.200   0.000    0.00
  12.200   12.04    0.51    2.39   0.000   0.200   0.000    0.00
  12.250   12.24    2.08    2.99   0.000   0.200   0.000    0.00
  12.300   12.19    4.56    1.38   0.000   0.200   0.000    0.00
  12.350   11.44    6.12    0.88   0.000   0.200   0.000    0.00
  12.400   10.81    6.52    0.62   0.000   0.200   0.000    0.00
  12.450   10.73    4.58   -0.19   0.000   0.200   0.000    0.00
  12.500   11.74    0.62    0.20   0.000   0.200   0.000    0.00
  12.550   11.88   -1.14   -0.79   0.000   0.200   0.000    0.00
  12.600   10.89    1.69   -0.60   0.000   0.200   0.000    0.00
  12.650   10.26    0.81   -0.81   0.000   0.200   0.000    0.00
  12.700   10.40   -1.48   -0.33   0.000   0.200   0.000    0.00
  12.750   10.04   -2.65   -1.20   0.000   0.200   0.000    0.00
  12.800    9.92    0.67   -1.61   0.000   0.200   0.000    0.00
  12.850   10.20   -5.72   -0.91   0.000   0.200   0.000    0.00
  12.900   10.47   -4.97   -1.02   0.000   0.200   0.000    0.00
  12.950   10.53   -6.42   -0.71   0.000   0.200   0.000    0.00
  13.000   10.42   -9.86   -0.95   0.000   0.200   0.000    0.00
  13.050   10.18   -5.65   -1.36   0.000   0.200   0.000    0.00
  13.100   10.95   -4.59   -0.29   0.000   0.200   0.000    0.00
  13.150   11.16   -5.64   -0.23   0.000   0.200   0.000    0.00
  13.200   10.92   -7.67   -0.75   0.000   0.200   0.000    0.00
  13.250   10.83  -10.43   -0.44   0.000   0.200   0.000    0.00
  13.300   11.73  -10.65   -0.47   0.000   0.200   0.000    0.00
  13.350   11.97  -13.84   -0.06   0.000   0.200   0.000    0.00
  13.400   12.60  -14.29   -0.02   0.000   0.200   0.000    0.00
  13.450   12.48  -12.57    0.51   0.000   0.200   0.000    0.00
  13.500   12.04   -7.10   -0.10   0.000   0.200   0.000    0.00
  13.550   12.67   -6.38   -0.29   0.000   0.200   0.000    0.00
  13.600   12.37   -8.61   -0.69   0.000   0.200   0.000    0.00
  13.650   12.61   -8.26   -0.23   0.000   0.200   0.000    0.00
  13.700   12.68   -3.07   -0.33   0.000   0.200   0.000    0.00
  13.750   13.01   -4.40   -0.10   0.000   0.200   0.000    0.00
  13.800   12.14   -2.68    0.33   0.000   0.200   0.000    0.00
  13.850   12.39   -0.36    0.58   0.000   0.200   0.000    0.00
  13.900   11.77   -1.03    0.80   0.000   0.200   0.000    0.00
  13.950   11.25   -4.01    0.56   0.000   0.200   0.000    0.00
  14.000   10.90   -3.85    1.07   0.000   0.200   0.000    0.00
  14.050   10.91   -2.27    1.54   0.000   0.200   0.000    0.00
  14.100   11.05   -6.26    1.50   0.000   0.200   0.000    0.00
  14.150   10.56   -6.64    1.41   0.000   0.200   0.000    0.00
  14.200   10.09   -5.29    0.55   0.000   0.200   0.000    0.00
  14.250   10.09    1.64    0.74   0.000   0.200   0.000    0.00
  14.300   11.16    0.01    1.07   0.000   0.200   0.000    0.00
  14.350   11.56    1.04    1.78   0.000   0.200   0.000    0.00
  14.400   11.28   -5.82    1.96   0.000   0.200   0.000    0.00
  14.450   11.52    1.65    1.63   0.000   0.200   0.000    0.00
  14.500   11.64    0.68    1.46   0.000   0.200   0.000    0.00
  14.550   12.24   -0.57    0.91   0.000   0.200   0.000    0.00
  14.600   12.00   -1.02    0.01   0.000   0.200   0.000    0.00
  14.650   11.49   -3.75   -0.47   0.000   0.200   0.000    0.00
  14.700   11.06   -4.90   -0.71   0.000   0.200   0.000    0.00
  14.750   10.64   -2.58   -0.65   0.000   0.200   0.000    0.00
  14.800   11.20   -0.23   -0.18   0.000   0.200   0.000    0.00
  14.850   12.31   -1.44    0.58   0.000   0.200   0.000    0.00
  14.900   12.03   -1.71   -0.13   0.000   0.200   0.000    0.00
  14.950   11.99   -0.90    0.30   0.000   0.200   0.000    0.00
  15.000   11.78    0.00    0.84   0.000   0.200   0.000    0.00
  15.050   12.72   -1.95    1.40   0.000   0.200   0.000    0.00
  15.100   12.01   -7.54    1.60   0.000   0.200   0.000    0.00
  15.150   12.32   -8.14    0.73   0.000   0.200   0.000    0.00
  15.200   12.28   -8.30    1.01   0.000   0.200   0.000    0.00
  15.250   12.66  -10.48    1.24   0.000   0.200   0.000    0.00
  15.300   13.27   -8.83    0.65   0.000   0.200   0.000    0.00
  15.350   13.70   -9.02    0.36   0.000   0.200   0.000    0.00
  15.400   13.38   -7.32   -0.06   0.000   0.200   0.000    0.00
  15.450   13.99   -7.05   -0.21   0.000   0.200   0.000    0.00
  15.500   13.45   -6.05    0.58   0.000   0.200   0.000    0.00
  15.550   13.14   -4.48    0.74   0.000   0.200   0.000    0.00
  15.600   13.52   -4.90    0.00   0.000   0.200   0.000    0.00
  15.650   13.71   -3.14   -0.94   0.000   0.200   0.000    0.00
  15.700   13.44   -2.23    0.41   0.000   0.200   0.000    0.00
  15.750   13.18   -0.70    0.79   0.000   0.200   0.000    0.00
  15.800   12.96    0.41    0.73   0.000   0.200   0.000    0.00
  15.850   12.18    2.23    1.46   0.000   0.200   0.000    0.00
  15.900   11.58    3.26    0.72   0.000   0.200   0.000    0.00
  15.950   11.64   -1.29    0.48   0.000   0.200   0.000    0.00
  16.000   12.45   -3.17    1.47   0.000   0.200   0.000    0.00
  16.050   12.64   -2.14    1.52   0.000   0.200   0.000    0.00
  16.100   13.30   -1.13    1.14   0.000   0.200   0.000    0.00
  16.150   13.33   -1.26    0.83   0.000   0.200   0.000    0.00
  16.200   13.08   -3.38    0.75   0.000   0.200   0.000    0.00
  16.250   13.34   -4.44   -0.37   0.000   0.200   0.000    0.00
  16.300   13.35   -6.45   -0.18   0.000   0.200   0.000    0.00
  16.350   13.71   -6.45   -0.80   0.000   0.200   0.000    0.00
  16.400   14.31  -11.53   -0.26   0.000   0.200   0.000    0.00
  16.450   13.09  -13.38   -0.71   0.000   0.200   0.000    0.00
  16.500   13.37  -15.03    0.15   0.000   0.200   0.000    0.00
  16.550   13.55  -12.50    0.85   0.000   0.200   0.000    0.00
  16.600   13.45  -12.46    1.00   0.000   0.200   0.000    0.00
  16.650   13.31  -11.87    0.67   0.000   0.200   0.000    0.00
  16.700   13.19  -10.55   -0.02   0.000   0.200   0.000    0.00
  16.750   14.27  -12.53   -0.84   0.000   0.200   0.000    0.00
  16.800   14.59  -12.00   -0.51   0.000   0.200   0.000    0.00
  16.850   14.21  -10.25   -1.02   0.000   0.200   0.000    0.00
  16.900   14.69  -12.40   -0.94   0.000   0.200   0.000    0.00
  16.950   14.80  -13.06   -0.95   0.000   0.200   0.000    0.00
  17.000   15.01  -13.53   -0.79   0.000   0.200   0.000    0.00
  17.050   14.97  -14.42    0.50   0.000   0.200   0.000    0.00
  17.100   15.41  -17.40    0.26   0.000   0.200   0.000    0.00
  17.150   15.86  -18.74   -0.41   0.000   0.200   0.000    0.00
  17.200   16.11  -18.96   -0.22   0.000   0.200   0.000    0.00
  17.250   15.20  -15.02   -0.53   0.000   0.200   0.000    0.00
  17.300   15.13  -16.89   -0.31   0.000   0.200   0.000    0.00
  17.350   15.74  -18.13   -0.29   0.000   0.200   0.000    0.00
  17.400   15.73  -16.37   -0.82   0.000   0.200   0.000    0.00
  17.450   15.35  -15.61   -0.32   0.000   0.200   0.000    0.00
  17.500   15.43  -12.64   -0.16   0.000   0.200   0.000    0.00
  17.550   15.39   -9.72    0.25   0.000   0.200   0.000    0.00
  17.600   15.38   -9.64    0.87   0.000   0.200   0.000    0.00
  17.650   15.20   -8.34    0.00   0.000   0.200   0.000    0.00
  17.700   15.30   -8.05   -0.14   0.000   0.200   0.000    0.00
  17.750   15.26  -10.95   -0.02   0.000   0.200   0.000    0.00
  17.800   14.18  -10.69    0.40   0.000   0.200   0.000    0.00
  17.850   13.97  -11.33    0.89   0.000   0.200   0.000    0.00
  17.900   13.95  -12.72    0.62   0.000   0.200   0.000    0.00
  17.950   14.56  -13.07    0.86   0.000   0.200   0.000    0.00
  18.000   14.05   -8.93    1.39   0.000   0.200   0.000    0.00
  18.050   15.02   -6.74    1.41   0.000   0.200   0.000    0.00
  18.100   14.47   -4.35    1.64   0.000   0.200   0.000    0.00
  18.150   14.23   -3.23    0.89   0.000   0.200   0.000    0.00
  18.200   14.10   -4.27    0.86   0.000   0.200   0.000    0.00
  18.250   14.58   -2.75    0.71   0.000   0.200   0.000    0.00
  18.300   15.00   -4.30    0.48   0.000   0.200   0.000    0.00
  18.350   15.10   -7.20    0.39   0.000   0.200   0.000    0.00
  18.400   14.64   -7.08    0.85   0.000   0.200   0.000    0.00
  18.450   13.96   -9.70    0.19   0.000   0.200   0.000    0.00
  18.500   13.53   -7.01   -0.49   0.000   0.200   0.000    0.00
  18.550   13.80   -6.19    0.59   0.000   0.200   0.000    0.00
  18.600   13.37   -6.53    0.80   0.000   0.200   0.000    0.00
  18.650   13.67   -8.26    0.54   0.000   0.200   0.000    0.00
  18.700   13.99   -8.38   -0.35   0.000   0.200   0.000    0.00
  18.750   14.82   -8.56   -0.07   0.000   0.200   0.000    0.00
  18.800   15.00   -7.59   -0.11   0.000   0.200   0.000    0.00
  18.850   15.71   -7.20   -0.56   0.000   0.200   0.000    0.00
  18.900   15.97   -8.79   -0.91   0.000   0.200   0.000    0.00
  18.950   16.44   -7.31   -1.12   0.000   0.200   0.000    0.00
  19.000   16.43   -8.54   -1.47   0.000   0.200   0.000    0.00
  19.050   16.71   -8.95   -1.24   0.000   0.200   0.000    0.00
  19.100   16.88  -11.21   -0.54   0.000   0.200   0.000    0.00
  19.150   16.58   -7.39   -0.11   0.000   0.200   0.000    0.00
  19.200   17.46   -7.16   -0.49   0.000   0.200   0.000    0.00
  19.250   16.65   -8.35    0.04   0.000   0.200   0.000    0.00
  19.300   16.16   -7.38    0.06   0.000   0.200   0.000    0.00
  19.350   16.87   -7.44   -0.03   0.000   0.200   0.000    0.00
  19.400   17.80   -7.56   -0.24   0.000   0.200   0.000    0.00
  19.450   17.41   -5.11   -0.58   0.000   0.200   0.000    0.00
  19.500   16.93   -6.35   -1.32   0.000   0.200   0.000    0.00
  19.550   17.16   -7.50   -1.56   0.000   0.200   0.000    0.00
  19.600   17.03   -2.31   -0.71   0.000   0.200   0.000    0.00
  19.650   16.73   -4.43   -1.31   0.000   0.200   0.000    0.00
  19.700   17.05   -7.15   -1.03   0.000   0.200   0.000    0.00
  19.750   17.00   -8.09   -1.27   0.000   0.200   0.000    0.00
  19.800   16.82   -8.02   -0.96   0.000   0.200   0.000    0.00
  19.850   17.77   -5.33   -1.22   0.000   0.200   0.000    0.00
  19.900   17.80   -5.63   -1.34   0.000   0.200   0.000    0.00
  19.950   17.63   -3.81   -1.16   0.000   0.200   0.000    0.00
  20.000   17.10   -4.89   -0.83   0.000   0.200   0.000    0.00
  20.050   16.90   -3.81   -0.70   0.000   0.200   0.000    0.00
  20.100   16.76   -4.10    0.26   0.000   0.200   0.000    0.00
  20.150   16.61   -5.46    0.47   0.000   0.200   0.000    0.00
  20.200   17.20   -2.60    0.22   0.000   0.200   0.000    0.00
  20.250   16.81   -3.36   -0.62   0.000   0.200   0.000    0.00
  20.300   16.92   -4.24    0.18   0.000   0.200   0.000    0.00
  20.350   17.30   -3.34    0.08   0.000   0.200   0.000    0.00
  20.400   18.35   -0.64   -0.03   0.000   0.200   0.000    0.00
  20.450   17.35   -4.37   -0.33   0.000   0.200   0.000    0.00
  20.500   17.41   -4.44   -1.06   0.000   0.200   0.000    0.00
  20.550   17.17   -2.61   -0.88   0.000   0.200   0.000    0.00
  20.600   16.43   -0.59   -1.52   0.000   0.200   0.000    0.00
  20.650   16.23   -0.89   -1.52   0.000   0.200   0.000    0.00
  20.700   16.52   -2.09   -0.60   0.000   0.200   0.000    0.00
  20.750   16.93    0.58    0.03   0.000   0.200   0.000    0.00
  20.800   16.51   -2.61    0.12   0.000   0.200   0.000    0.00
  20.850   16.84   -0.81   -0.09   0.000   0.200   0.000    0.00
  20.900   16.57    2.86    0.13   0.000   0.200   0.000    0.00
  20.950   16.14    1.76    0.32   0.000   0.200   0.000    0.00
  21.000   16.99    0.81    0.38   0.000   0.200   0.000    0.00
  21.050   16.76    2.73    0.79   0.000   0.200   0.000    0.00
  21.100   16.83    2.33    0.13   0.000   0.200   0.000    0.00
  21.150   17.14    0.10   -0.06   0.000   0.200   0.000    0.00
  21.200   16.67    0.61    0.35   0.000   0.200   0.000    0.00
  21.250   16.48    0.15    0.87   0.000   0.200   0.000    0.00
  21.300   16.54    1.51    0.99   0.000   0.200   0.000    0.00
  21.350   16.56    3.38   -0.15   0.000   0.200   0.000    0.00
  21.400   16.67    3.48   -0.31   0.000   0.200   0.000    0.00
  21.450   16.62    1.55   -0.37   0.000   0.200   0.000    0.00
  21.500   15.65    2.15   -0.13   0.000   0.200   0.000    0.00
  21.550   15.21    0.98   -0.29   0.000   0.200   0.000    0.00
  21.600   15.01   -0.05   -0.97   0.000   0.200   0.000    0.00
  21.650   15.29   -2.40   -0.46   0.000   0.200   0.000    0.00
  21.700   15.72   -2.56    0.27   0.000   0.200   0.000    0.00
  21.750   16.27   -5.08    0.56   0.000   0.200   0.000    0.00
  21.800   16.65   -7.64    0.42   0.000   0.200   0.000    0.00
  21.850   16.29   -7.87    1.06   0.000   0.200   0.000    0.00
  21.900   16.43   -5.37    1.79   0.000   0.200   0.000    0.00
  21.950   15.87   -4.55    1.84   0.000   0.200   0.000    0.00
  22.000   15.38   -4.20    2.02   0.000   0.200   0.000    0.00
  22.050   15.79   -2.78    2.25   0.000   0.200   0.000    0.00
  22.100   15.69   -0.83    2.01   0.000   0.200   0.000    0.00
  22.150   15.43   -3.47    1.76   0.000   0.200   0.000    0.00
  22.200   15.66   -3.41    0.99   0.000   0.200   0.000    0.00
  22.250   15.82   -2.69    1.27   0.000   0.200   0.000    0.00
  22.300   15.52   -2.54    1.00   0.000   0.200   0.000    0.00
  22.350   15.41    2.58    1.41   0.000   0.200   0.000    0.00