! This hub-height wind-speed file was generated by TurbSim (v1.06.00, 21-Sep-2012) on 03-Feb-2018 at 23:31:47.
!
! The requested statistics for this data were:
!    Mean Total Wind Speed =   17.000 m/s
!    Turbulence Intensity  =   20.740%
!
!   Time  HorSpd  WndDir  VerSpd  HorShr  VerShr  LnVShr  GstSpd
!  (sec)   (m/s)   (deg)   (m/s)     (-)     (-)     (-)   (m/s)
   0.000   20.52   23.57   -0.57   0.000   0.200   0.000    0.00
   0.050   21.48   24.09   -0.87   0.000   0.200   0.000    0.00
   0.100   20.47   18.53   -0.89   0.000   0.200   0.000    0.00
   0.150   20.83   19.15   -0.48   0.000   0.200   0.000    0.00
   0.200   22.06   20.58    0.14   0.000   0.200   0.000    0.00
   0.250   22.22   16.40   -0.24   0.000   0.200   0.000    0.00
   0.300   21.97   15.70   -0.30   0.000   0.200   0.000    0.00
   0.350   22.47   12.65    0.20   0.000   0.200   0.000    0.00
   0.400   24.04   13.82    0.46   0.000   0.200   0.000    0.00
   0.450   23.77   11.97    0.74   0.000   0.200   0.000    0.00
   0.500   23.30    9.46    1.63   0.000   0.200   0.000    0.00
   0.550   22.61   13.48    1.97   0.000   0.200   0.000    0.00
   0.600   22.51   13.48    1.74   0.000   0.200   0.000    0.00
   0.650   22.26   13.32    0.29   0.000   0.200   0.000    0.00
   0.700   23.08   15.92   -0.89   0.000   0.200   0.000    0.00
   0.750   24.18   18.06   -0.58   0.000   0.200   0.000    0.00
   0.800   24.50   16.75   -2.16   0.000   0.200   0.000    0.00
   0.850   23.59   18.04   -2.76   0.000   0.200   0.000    0.00
   0.900   21.78   14.83   -3.58   0.000   0.200   0.000    0.00
   0.950   20.58   15.65   -2.48   0.000   0.200   0.000    0.00
   1.000   21.72   14.28   -1.36   0.000   0.200   0.000    0.00
   1.050   21.36   13.89   -2.26   0.000   0.200   0.000    0.00
   1.100   20.89   15.43   -2.35   0.000   0.200   0.000    0.00
   1.150   21.09   13.17   -2.89   0.000   0.200   0.000    0.00
   1.200   21.30   13.21   -2.55   0.000   0.200   0.000    0.00
   1.250   21.21   12.02   -3.60   0.000   0.200   0.000    0.00
   1.300   21.46   12.98   -2.96   0.000   0.200   0.000    0.00
   1.350   20.70   13.22   -2.25   0.000   0.200   0.000    0.00
   1.400   20.66   13.11   -1.43   0.000   0.200   0.000    0.00
   1.450   21.53   12.88   -1.97   0.000   0.200   0.000    0.00
   1.500   21.36   11.67   -2.05   0.000   0.200   0.000    0.00
   1.550   22.03   14.63   -1.92   0.000   0.200   0.000    0.00
   1.600   21.74   13.42   -1.84   0.000   0.200   0.000    0.00
   1.650   21.12   15.79   -3.32   0.000   0.200   0.000    0.00
   1.700   21.01   17.74   -2.54   0.000   0.200   0.000    0.00
   1.750   20.63   17.69   -2.47   0.000   0.200   0.000    0.00
   1.800   20.84   17.00   -1.98   0.000   0.200   0.000    0.00
   1.850   20.78   13.26   -2.34   0.000   0.200   0.000    0.00
   1.900   19.98   10.93   -3.24   0.000   0.200   0.000    0.00
   1.950   20.41   12.01   -2.31   0.000   0.200   0.000    0.00
   2.000   20.17   12.11   -1.77   0.000   0.200   0.000    0.00
   2.050   19.73   13.05   -0.72   0.000   0.200   0.000    0.00
   2.100   18.90   11.98    0.13   0.000   0.200   0.000    0.00
   2.150   19.30   13.81    0.99   0.000   0.200   0.000    0.00
   2.200   18.09   11.57    1.66   0.000   0.200   0.000    0.00
   2.250   18.47   11.89    2.77   0.000   0.200   0.000    0.00
   2.300   18.69   11.48    1.40   0.000   0.200   0.000    0.00
   2.350   18.44   12.33    1.80   0.000   0.200   0.000    0.00
   2.400   19.81   10.66    2.19   0.000   0.200   0.000    0.00
   2.450   19.67   12.72    2.50   0.000   0.200   0.000    0.00
   2.500   19.14   11.14    2.03   0.000   0.200   0.000    0.00
   2.550   19.05   11.06    0.99   0.000   0.200   0.000    0.00
   2.600   18.71    8.73    1.59   0.000   0.200   0.000    0.00
   2.650   18.67    7.92    0.58   0.000   0.200   0.000    0.00
   2.700   19.60    8.25    0.02   0.000   0.200   0.000    0.00
   2.750   19.03    8.59    1.29   0.000   0.200   0.000    0.00
   2.800   17.07    6.10    0.18   0.000   0.200   0.000    0.00
   2.850   17.34    1.88   -0.41   0.000   0.200   0.000    0.00
   2.900   17.31    1.51   -0.58   0.000   0.200   0.000    0.00
   2.950   18.63   -0.03   -0.02   0.000   0.200   0.000    0.00
   3.000   19.42   -1.63    0.76   0.000   0.200   0.000    0.00
   3.050   19.23   -2.62    1.04   0.000   0.200   0.000    0.00
   3.100   19.39   -2.95    2.47   0.000   0.200   0.000    0.00
   3.150   19.81   -2.10    1.66   0.000   0.200   0.000    0.00
   3.200   19.59   -1.52    1.30   0.000   0.200   0.000    0.00
   3.250   18.30   -5.38    2.51   0.000   0.200   0.000    0.00
   3.300   17.76   -5.22    3.73   0.000   0.200   0.000    0.00
   3.350   17.43   -4.19    2.95   0.000   0.200   0.000    0.00
   3.400   17.26   -2.76    2.18   0.000   0.200   0.000    0.00
   3.450   17.56   -3.67    1.85   0.000   0.200   0.000    0.00
   3.500   16.78   -1.02    0.86   0.000   0.200   0.000    0.00
   3.550   16.65   -4.20    1.68   0.000   0.200   0.000    0.00
   3.600   16.30   -2.59    0.58   0.000   0.200   0.000    0.00
   3.650   17.47   -1.74    1.07   0.000   0.200   0.000    0.00
   3.700   17.19   -2.75    1.64   0.000   0.200   0.000    0.00
   3.750   17.25   -3.99    2.02   0.000   0.200   0.000    0.00
   3.800   18.94   -3.96    1.46   0.000   0.200   0.000    0.00
   3.850   19.48   -1.31    0.59   0.000   0.200   0.000    0.00
   3.900   19.46   -0.62   -0.80   0.000   0.200   0.000    0.00
   3.950   19.14   -2.76   -1.45   0.000   0.200   0.000    0.00
   4.000   18.81   -2.05   -0.57   0.000   0.200   0.000    0.00
   4.050   18.48    0.41   -0.89   0.000   0.200   0.000    0.00
   4.100   17.91   -3.42   -2.43   0.000   0.200   0.000    0.00
   4.150   17.74   -2.69   -2.03   0.000   0.200   0.000    0.00
   4.200   17.30    0.13   -2.36   0.000   0.200   0.000    0.00
   4.250   16.71    0.71   -3.08   0.000   0.200   0.000    0.00
   4.300   16.95   -1.13   -1.67   0.000   0.200   0.000    0.00
   4.350   16.46   -4.66   -0.45   0.000   0.200   0.000    0.00
   4.400   17.60   -7.92   -0.40   0.000   0.200   0.000    0.00
   4.450   17.76   -7.97   -0.13   0.000   0.200   0.000    0.00
   4.500   16.45   -6.17   -0.41   0.000   0.200   0.000    0.00
   4.550   16.47   -2.24    0.94   0.000   0.200   0.000    0.00
   4.600   16.47   -1.62    0.35   0.000   0.200   0.000    0.00
   4.650   16.53   -1.49    0.34   0.000   0.200   0.000    0.00
   4.700   17.25   -2.61    0.02   0.000   0.200   0.000    0.00
   4.750   16.88   -1.68   -0.63   0.000   0.200   0.000    0.00
   4.800   16.50   -0.83    0.10   0.000   0.200   0.000    0.00
   4.850   16.90    0.52   -0.56   0.000   0.200   0.000    0.00
   4.900   17.47    0.41   -0.90   0.000   0.200   0.000    0.00
   4.950   18.30    4.20   -0.50   0.000   0.200   0.000    0.00
   5.000   17.57    3.68   -1.30   0.000   0.200   0.000    0.00
   5.050   17.80    8.23   -1.34   0.000   0.200   0.000    0.00
   5.100   17.82    7.56   -2.98   0.000   0.200   0.000    0.00
   5.150   18.46    2.91   -2.98   0.000   0.200   0.000    0.00
   5.200   18.16    2.62   -3.23   0.000   0.200   0.000    0.00
   5.250   18.40    6.13   -2.90   0.000   0.200   0.000    0.00
   5.300   18.63    5.71   -2.08   0.000   0.200   0.000    0.00
   5.350   19.24    3.93   -1.64   0.000   0.200   0.000    0.00
   5.400   18.52    4.47   -1.20   0.000   0.200   0.000    0.00
   5.450   18.54    4.45   -1.73   0.000   0.200   0.000    0.00
   5.500   18.57    3.07   -1.77   0.000   0.200   0.000    0.00
   5.550   17.38    8.44   -2.96   0.000   0.200   0.000    0.00
   5.600   16.64   10.76   -3.07   0.000   0.200   0.000    0.00
   5.650   16.67   11.04   -3.05   0.000   0.200   0.000    0.00
   5.700   16.84   11.26   -1.20   0.000   0.200   0.000    0.00
   5.750   16.51   13.54   -0.16   0.000   0.200   0.000    0.00
   5.800   16.66   13.70   -0.94   0.000   0.200   0.000    0.00
   5.850   17.01   16.64   -0.57   0.000   0.200   0.000    0.00
   5.900   17.56   19.81   -0.51   0.000   0.200   0.000    0.00
   5.950   17.69   19.97   -0.42   0.000   0.200   0.000    0.00
   6.000   17.53   22.35    0.31   0.000   0.200   0.000    0.00
   6.050   18.32   24.95   -0.35   0.000   0.200   0.000    0.00
   6.100   17.75   22.73   -0.64   0.000   0.200   0.000    0.00
   6.150   17.70   18.05   -0.31   0.000   0.200   0.000    0.00
   6.200   17.29   15.44   -0.72   0.000   0.200   0.000    0.00
   6.250   17.10   13.69   -0.72   0.000   0.200   0.000    0.00
   6.300   16.66   15.97   -0.13   0.000   0.200   0.000    0.00
   6.350   16.41   18.30   -0.56   0.000   0.200   0.000    0.00
   6.400   16.96   18.81   -0.33   0.000   0.200   0.000    0.00
   6.450   16.87   15.77   -0.57   0.000   0.200   0.000    0.00
   6.500   17.86   15.80   -0.88   0.000   0.200   0.000    0.00
   6.550   16.64   13.73   -1.63   0.000   0.200   0.000    0.00
   6.600   17.72   13.64   -1.07   0.000   0.200   0.000    0.00
   6.650   17.78   12.10   -1.11   0.000   0.200   0.000    0.00
   6.700   16.94   11.18   -2.11   0.000   0.200   0.000    0.00
   6.750   16.63   14.97   -0.56   0.000   0.200   0.000    0.00
   6.800   16.35   10.63   -0.59   0.000   0.200   0.000    0.00
   6.850   16.85   11.62   -0.47   0.000   0.200   0.000    0.00
   6.900   17.45   13.14   -0.24   0.000   0.200   0.000    0.00
   6.950   17.46   16.27   -0.41   0.000   0.200   0.000    0.00
   7.000   17.93   18.28   -1.23   0.000   0.200   0.000    0.00
   7.050   18.05   19.60   -0.38   0.000   0.200   0.000    0.00
   7.100   18.57   19.32   -0.22   0.000   0.200   0.000    0.00
   7.150   18.65   18.81    0.56   0.000   0.200   0.000    0.00
   7.200   18.97   18.07    0.82   0.000   0.200   0.000    0.00
   7.250   18.74   17.51    0.40   0.000   0.200   0.000    0.00
   7.300   18.92   18.57   -0.22   0.000   0.200   0.000    0.00
   7.350   18.83   15.29    0.09   0.000   0.200   0.000    0.00
   7.400   17.48   18.44    0.00   0.000   0.200   0.000    0.00
   7.450   17.86   18.80   -1.31   0.000   0.200   0.000    0.00
   7.500   18.52   19.04   -0.58   0.000   0.200   0.000    0.00
   7.550   18.67   23.80   -0.44   0.000   0.200   0.000    0.00
   7.600   18.76   24.44   -1.55   0.000   0.200   0.000    0.00
   7.650   19.10   23.33   -0.88   0.000   0.200   0.000    0.00
   7.700   19.56   22.96   -0.68   0.000   0.200   0.000    0.00
   7.750   18.59   24.13   -0.53   0.000   0.200   0.000    0.00
   7.800   19.09   24.96   -0.53   0.000   0.200   0.000    0.00
   7.850   18.51   23.46   -2.23   0.000   0.200   0.000    0.00
   7.900   18.51   22.92   -2.36   0.000   0.200   0.000    0.00
   7.950   18.19   22.90   -1.68   0.000   0.200   0.000    0.00
   8.000   17.54   20.50   -1.81   0.000   0.200   0.000    0.00
   8.050   16.97   18.66   -1.94   0.000   0.200   0.000    0.00
   8.100   17.70   18.61   -2.18   0.000   0.200   0.000    0.00
   8.150   17.87   18.12   -1.65   0.000   0.200   0.000    0.00
   8.200   17.50   16.22   -1.42   0.000   0.200   0.000    0.00
   8.250   17.49   13.61   -1.33   0.000   0.200   0.000    0.00
   8.300   17.80   14.78   -1.41   0.000   0.200   0.000    0.00
   8.350   17.75   15.08   -1.72   0.000   0.200   0.000    0.00
   8.400   18.09   16.09   -2.06   0.000   0.200   0.000    0.00
   8.450   17.78   12.10   -3.06   0.000   0.200   0.000    0.00
   8.500   18.66   13.19   -2.48   0.000   0.200   0.000    0.00
   8.550   18.71   11.42   -1.98   0.000   0.200   0.000    0.00
   8.600   18.93   10.49    0.27   0.000   0.200   0.000    0.00
   8.650   20.28    9.62    0.81   0.000   0.200   0.000    0.00
   8.700   20.66    6.64    1.61   0.000   0.200   0.000    0.00
   8.750   20.87    7.21    1.79   0.000   0.200   0.000    0.00
   8.800   20.67   11.50    0.91   0.000   0.200   0.000    0.00
   8.850   20.68   11.62   -0.04   0.000   0.200   0.000    0.00
   8.900   21.37   14.85   -0.52   0.000   0.200   0.000    0.00
   8.950   21.30   14.27   -0.60   0.000   0.200   0.000    0.00
   9.000   21.28   12.69    0.47   0.000   0.200   0.000    0.00
   9.050   21.31   11.48   -0.24   0.000   0.200   0.000    0.00
   9.100   21.67    9.41   -0.50   0.000   0.200   0.000    0.00
   9.150   21.55    8.97    0.06   0.000   0.200   0.000    0.00
   9.200   21.01    8.15   -0.07   0.000   0.200   0.000    0.00
   9.250   20.58   10.90   -0.64   0.000   0.200   0.000    0.00
   9.300   20.14    7.99   -1.05   0.000   0.200   0.000    0.00
   9.350   19.95    5.12   -0.17   0.000   0.200   0.000    0.00
   9.400   19.90    2.55    0.52   0.000   0.200   0.000    0.00
   9.450   19.50    1.14   -0.19   0.000   0.200   0.000    0.00
   9.500   20.24    4.29   -0.37   0.000   0.200   0.000    0.00
   9.550   20.41    7.88   -0.59   0.000   0.200   0.000    0.00
   9.600   20.52    7.91   -1.58   0.000   0.200   0.000    0.00
   9.650   20.67    6.59   -0.90   0.000   0.200   0.000    0.00
   9.700   21.03    3.52   -0.87   0.000   0.200   0.000    0.00
   9.750   19.50    4.70   -1.83   0.000   0.200   0.000    0.00
   9.800   19.92    7.17   -1.43   0.000   0.200   0.000    0.00
   9.850   18.88    7.83   -1.31   0.000   0.200   0.000    0.00
   9.900   18.23    2.89   -1.83   0.000   0.200   0.000    0.00
   9.950   18.67    3.92   -2.29   0.000   0.200   0.000    0.00
  10.000   18.65    5.26   -1.29   0.000   0.200   0.000    0.00
  10.050   18.26    3.94   -0.25   0.000   0.200   0.000    0.00
  10.100   18.21    3.00   -1.25   0.000   0.200   0.000    0.00
  10.150   17.51    4.98   -1.70   0.000   0.200   0.000    0.00
  10.200   17.93    5.55   -2.68   0.000   0.200   0.000    0.00
  10.250   17.80    4.17   -2.03   0.000   0.200   0.000    0.00
  10.300   17.41    5.52   -0.97   0.000   0.200   0.000    0.00
  10.350   16.34    7.81   -0.91   0.000   0.200   0.000    0.00
  10.400   16.60   10.49   -0.42   0.000   0.200   0.000    0.00
  10.450   17.41    8.47   -1.24   0.000   0.200   0.000    0.00
  10.500   18.69   11.20   -1.49   0.000   0.200   0.000    0.00
  10.550   18.65    9.97   -2.97   0.000   0.200   0.000    0.00
  10.600   17.67    8.31   -1.28   0.000   0.200   0.000    0.00
  10.650   17.15    5.17    0.84   0.000   0.200   0.000    0.00
  10.700   17.39    4.53    0.88   0.000   0.200   0.000    0.00
  10.750   17.47    7.72    1.48   0.000   0.200   0.000    0.00
  10.800   17.08    6.40    0.84   0.000   0.200   0.000    0.00
  10.850   18.29    4.02    0.24   0.000   0.200   0.000    0.00
  10.900   18.80    5.86    0.45   0.000   0.200   0.000    0.00
  10.950   18.25    7.54    0.41   0.000   0.200   0.000    0.00
  11.000   17.25    6.34   -0.19   0.000   0.200   0.000    0.00
  11.050   16.87    7.30    0.22   0.000   0.200   0.000    0.00
  11.100   16.00    7.57    0.54   0.000   0.200   0.000    0.00
  11.150   16.34    7.69   -0.41   0.000   0.200   0.000    0.00
  11.200   16.44    7.23    0.24   0.000   0.200   0.000    0.00
  11.250   16.44    4.53    1.32   0.000   0.200   0.000    0.00
  11.300   16.73    2.61    1.88   0.000   0.200   0.000    0.00
  11.350   16.24    5.39    1.99   0.000   0.200   0.000    0.00
  11.400   15.28    5.69    2.84   0.000   0.200   0.000    0.00
  11.450   15.35    5.86    2.08   0.000   0.200   0.000    0.00
  11.500   16.02    5.52    1.89   0.000   0.200   0.000    0.00
  11.550   16.19    3.23    1.34   0.000   0.200   0.000    0.00
  11.600   16.50    4.34    1.54   0.000   0.200   0.000    0.00
  11.650   16.91    6.13    2.44   0.000   0.200   0.000    0.00
  11.700   16.83    7.57    1.13   0.000   0.200   0.000    0.00
  11.750   16.03    6.38    0.87   0.000   0.200   0.000    0.00
  11.800   15.77    7.08    0.32   0.000   0.200   0.000    0.00
  11.850   14.81    9.77   -0.25   0.000   0.200   0.000    0.00
  11.900   14.15    6.89    0.18   0.000   0.200   0.000    0.00
  11.950   14.23    8.18   -1.07   0.000   0.200   0.000    0.00
  12.000   14.62    7.69   -0.77   0.000   0.200   0.000    0.00
  12.050   14.48    5.81   -1.56   0.000   0.200   0.000    0.00
  12.100   12.88    4.27   -1.07   0.000   0.200   0.000    0.00
  12.150   13.53    2.46   -1.50   0.000   0.200   0.000    0.00
  12.200   13.64    2.58   -0.48   0.000   0.200   0.000    0.00
  12.250   13.58   -0.42   -1.00   0.000   0.200   0.000    0.00
  12.300   13.19    3.71   -1.12   0.000   0.200   0.000    0.00
  12.350   12.28    5.20   -0.77   0.000   0.200   0.000    0.00
  12.400   13.30    9.20    0.36   0.000   0.200   0.000    0.00
  12.450   13.26    5.39   -1.43   0.000   0.200   0.000    0.00
  12.500   12.54    5.79   -2.44   0.000   0.200   0.000    0.00
  12.550   11.80    8.04   -1.40   0.000   0.200   0.000    0.00
  12.600   12.59    6.07   -1.63   0.000   0.200   0.000    0.00
  12.650   13.00    4.27   -1.32   0.000   0.200   0.000    0.00
  12.700   14.37    3.33   -0.47   0.000   0.200   0.000    0.00
  12.750   14.67    5.89   -0.73   0.000   0.200   0.000    0.00
  12.800   14.12   11.45   -0.42   0.000   0.200   0.000    0.00
  12.850   14.44   10.09   -0.98   0.000   0.200   0.000    0.00
  12.900   13.60   12.16   -0.80   0.000   0.200   0.000    0.00
  12.950   12.96   17.20   -0.91   0.000   0.200   0.000    0.00
  13.000   13.51   15.95   -0.28   0.000   0.200   0.000    0.00
  13.050   12.75   13.56   -0.66   0.000   0.200   0.000    0.00
  13.100   14.01   13.15    0.07   0.000   0.200   0.000    0.00
  13.150   14.12    9.29    0.77   0.000   0.200   0.000    0.00
  13.200   15.01    7.97    0.53   0.000   0.200   0.000    0.00
  13.250   15.09    4.40    0.77   0.000   0.200   0.000    0.00
  13.300   15.23    2.14    0.94   0.000   0.200   0.000    0.00
  13.350   15.34    2.24    1.57   0.000   0.200   0.000    0.00
  13.400   14.50    0.73    0.63   0.000   0.200   0.000    0.00
  13.450   14.43    4.03    0.70   0.000   0.200   0.000    0.00
  13.500   14.92   10.21   -0.47   0.000   0.200   0.000    0.00
  13.550   15.41    9.44   -0.16   0.000   0.200   0.000    0.00
  13.600   15.21   11.64    0.27   0.000   0.200   0.000    0.00
  13.650   16.15    9.72    0.29   0.000   0.200   0.000    0.00
  13.700   16.87   13.13   -0.25   0.000   0.200   0.000    0.00
  13.750   16.14    8.73   -0.52   0.000   0.200   0.000    0.00
  13.800   16.08   10.07   -0.05   0.000   0.200   0.000    0.00
  13.850   15.34   10.68   -0.09   0.000   0.200   0.000    0.00
  13.900   15.44    2.59    0.03   0.000   0.200   0.000    0.00
  13.950   15.37    2.05    0.68   0.000   0.200   0.000    0.00
  14.000   14.32    0.79    0.68   0.000   0.200   0.000    0.00
  14.050   14.83   -0.16    0.72   0.000   0.200   0.000    0.00
  14.100   14.67   -2.70    1.26   0.000   0.200   0.000    0.00
  14.150   14.73   -2.79   -0.06   0.000   0.200   0.000    0.00
  14.200   14.64   -1.88    0.73   0.000   0.200   0.000    0.00
  14.250   14.50   -4.28    1.36   0.000   0.200   0.000    0.00
  14.300   15.04    1.79    1.65   0.000   0.200   0.000    0.00
  14.350   14.64    4.49    1.75   0.000   0.200   0.000    0.00
  14.400   14.75    2.78    2.24   0.000   0.200   0.000    0.00
  14.450   13.95    3.77    1.34   0.000   0.200   0.000    0.00
  14.500   14.04    8.51    0.45   0.000   0.200   0.000    0.00
  14.550   13.11   12.15    0.62   0.000   0.200   0.000    0.00
  14.600   12.82    8.98    1.05   0.000   0.200   0.000    0.00
  14.650   12.89    8.55    0.48   0.000   0.200   0.000    0.00
  14.700   13.66    9.98   -0.20   0.000   0.200   0.000    0.00
  14.750   14.45    5.22    0.93   0.000   0.200   0.000    0.00
  14.800   14.71    5.67    1.42   0.000   0.200   0.000    0.00
  14.850   14.84   10.93    1.54   0.000   0.200   0.000    0.00
  14.900   14.85    7.80    0.55   0.000   0.200   0.000    0.00
  14.950   15.33    8.23    0.58   0.000   0.200   0.000    0.00
  15.000   16.11   11.80    0.20   0.000   0.200   0.000    0.00
  15.050   15.18   13.42    0.23   0.000   0.200   0.000    0.00
  15.100   14.72   22.30    1.22   0.000   0.200   0.000    0.00
  15.150   14.24   19.20    0.52   0.000   0.200   0.000    0.00
  15.200   13.70   18.59    0.44   0.000   0.200   0.000    0.00
  15.250   13.84   10.57   -0.34   0.000   0.200   0.000    0.00
  15.300   14.26    8.01   -0.51   0.000   0.200   0.000    0.00
  15.350   13.52   10.00    0.21   0.000   0.200   0.000    0.00
  15.400   14.35   13.93    0.27   0.000   0.200   0.000    0.00
  15.450   14.77   19.46   -0.04   0.000   0.200   0.000    0.00
  15.500   15.28   21.94   -1.17   0.000   0.200   0.000    0.00
  15.550   15.16   20.58    0.16   0.000   0.200   0.000    0.00
  15.600   15.26   18.35    0.20   0.000   0.200   0.000    0.00
  15.650   14.11   13.13   -0.15   0.000   0.200   0.000    0.00
  15.700   13.64   13.12   -1.01   0.000   0.200   0.000    0.00
  15.750   13.97    9.26   -2.04   0.000   0.200   0.000    0.00
  15.800   13.76    9.64   -0.87   0.000   0.200   0.000    0.00
  15.850   14.19   11.82    0.43   0.000   0.200   0.000    0.00
  15.900   14.13   15.83    0.31   0.000   0.200   0.000    0.00
  15.950   15.08   17.81    0.69   0.000   0.200   0.000    0.00
  16.000   15.88   14.86    1.49   0.000   0.200   0.000    0.00
  16.050   15.20   13.76    1.48   0.000   0.200   0.000    0.00
  16.100   14.95   12.71    1.50   0.000   0.200   0.000    0.00
  16.150   14.62   11.64    1.21   0.000   0.200   0.000    0.00
  16.200   13.60    9.22    1.68   0.000   0.200   0.000    0.00
  16.250   12.99    8.03    1.73   0.000   0.200   0.000    0.00
  16.300   11.92   11.84    2.55   0.000   0.200   0.000    0.00
  16.350   12.30   18.72    1.40   0.000   0.200   0.000    0.00
  16.400   12.45   25.81    1.54   0.000   0.200   0.000    0.00
  16.450   13.06   20.71    1.09   0.000   0.200   0.000    0.00
  16.500   12.69   18.67    0.32   0.000   0.200   0.000    0.00
  16.550   12.69   21.91    1.70   0.000   0.200   0.000    0.00
  16.600   12.66   19.66    0.96   0.000   0.200   0.000    0.00
  16.650   13.25   20.77    0.82   0.000   0.200   0.000    0.00
  16.700   12.48   24.39    1.30   0.000   0.200   0.000    0.00
  16.750   12.95   20.72    1.50   0.000   0.200   0.000    0.00
  16.800   12.93   24.10    1.49   0.000   0.200   0.000    0.00
  16.850   13.39   23.09    1.27   0.000   0.200   0.000    0.00
  16.900   13.14   17.11    2.11   0.000   0.200   0.000    0.00
  16.950   13.12    8.27    2.79   0.000   0.200   0.000    0.00
  17.000   14.02   10.60    2.96   0.000   0.200   0.000    0.00
  17.050   13.78    8.15    2.23   0.000   0.200   0.000    0.00
  17.100   13.70    4.94    1.70   0.000   0.200   0.000    0.00
  17.150   14.33    5.65    1.72   0.000   0.200   0.000    0.00
  17.200   13.82   12.53    2.05   0.000   0.200   0.000    0.00
  17.250   13.74   14.67    3.14   0.000   0.200   0.000    0.00
  17.300   14.85   12.62    3.79   0.000   0.200   0.000    0.00
  17.350   15.78   12.30    3.96   0.000   0.200   0.000    0.00
  17.400   16.29   10.72    4.41   0.000   0.200   0.000    0.00
  17.450   16.98    7.25    3.38   0.000   0.200   0.000    0.00
  17.500   17.72    7.79    2.98   0.000   0.200   0.000    0.00
  17.550   16.33    8.80    2.38   0.000   0.200   0.000    0.00
  17.600   16.31    9.14    1.60   0.000   0.200   0.000    0.00
  17.650   17.46   12.07    1.68   0.000   0.200   0.000    0.00
  17.700   17.58   14.62    2.36   0.000   0.200   0.000    0.00
  17.750   16.85   15.26    2.88   0.000   0.200   0.000    0.00
  17.800   15.98   15.70    2.53   0.000   0.200   0.000    0.00
  17.850   16.11   16.86    1.44   0.000   0.200   0.000    0.00
  17.900   16.33   14.16    1.31   0.000   0.200   0.000    0.00
  17.950   17.10    9.38    1.45   0.000   0.200   0.000    0.00
  18.000   16.44   10.77    1.34   0.000   0.200   0.000    0.00
  18.050   15.64    9.12    1.69   0.000   0.200   0.000    0.00
  18.100   15.75   13.81    1.98   0.000   0.200   0.000    0.00
  18.150   15.97   13.14    2.53   0.000   0.200   0.000    0.00
  18.200   15.77   15.89    1.88   0.000   0.200   0.000    0.00
  18.250   15.11   16.27    2.38   0.000   0.200   0.000    0.00
  18.300   15.16   14.15    2.41   0.000   0.200   0.000    0.00
  18.350   15.90   16.20    2.80   0.000   0.200   0.000    0.00
  18.400   16.48   16.07    2.99   0.000   0.200   0.000    0.00
  18.450   16.86   18.28    3.27   0.000   0.200   0.000    0.00
  18.500   17.22   18.35    2.60   0.000   0.200   0.000    0.00
  18.550   17.50   18.97    2.36   0.000   0.200   0.000    0.00
  18.600   17.60   17.03    2.99   0.000   0.200   0.000    0.00
  18.650   16.82   14.06    2.21   0.000   0.200   0.000    0.00
  18.700   17.31   15.24    2.34   0.000   0.200   0.000    0.00
  18.750   17.35   14.64    3.24   0.000   0.200   0.000    0.00
  18.800   16.50   16.70    2.07   0.000   0.200   0.000    0.00
  18.850   16.69   17.80    1.56   0.000   0.200   0.000    0.00
  18.900   16.10   20.42    0.76   0.000   0.200   0.000    0.00
  18.950   16.52   22.67    0.89   0.000   0.200   0.000    0.00
  19.000   17.70   19.06    0.54   0.000   0.200   0.000    0.00
  19.050   17.42   17.34    2.59   0.000   0.200   0.000    0.00
  19.100   17.89   16.27    3.78   0.000   0.200   0.000    0.00
  19.150   17.34   12.75    3.47   0.000   0.200   0.000    0.00
  19.200   16.78   12.85    4.20   0.000   0.200   0.000    0.00
  19.250   16.59   13.72    4.62   0.000   0.200   0.000    0.00
  19.300   16.84   16.99    4.61   0.000   0.200   0.000    0.00
  19.350   17.86   20.26    4.78   0.000   0.200   0.000    0.00
  19.400   17.55   20.02    4.58   0.000   0.200   0.000    0.00
  19.450   15.98   24.37    3.90   0.000   0.200   0.000    0.00
  19.500   15.63   26.35    3.40   0.000   0.200   0.000    0.00
  19.550   16.89   25.98    3.00   0.000   0.200   0.000    0.00
  19.600   16.95   26.59    2.40   0.000   0.200   0.000    0.00
  19.650   16.96   28.79    2.84   0.000   0.200   0.000    0.00
  19.700   15.44   26.59    2.68   0.000   0.200   0.000    0.00
  19.750   15.47   26.05    3.33   0.000   0.200   0.000    0.00
  19.800   14.74   23.59    3.10   0.000   0.200   0.000    0.00
  19.850   14.93   17.91    3.65   0.000   0.200   0.000    0.00
  19.900   14.64   17.73    4.08   0.000   0.200   0.000    0.00
  19.950   14.92   14.09    3.12   0.000   0.200   0.000    0.00
  20.000   14.77   13.17    2.92   0.000   0.200   0.000    0.00
  20.050   14.36   14.49    1.79   0.000   0.200   0.000    0.00
  20.100   14.64   15.41    1.75   0.000   0.200   0.000    0.00
  20.150   14.88   17.57    2.40   0.000   0.200   0.000    0.00
  20.200   14.83   23.38    1.13   0.000   0.200   0.000    0.00
  20.250   14.89   23.12    1.21   0.000   0.200   0.000    0.00
  20.300   14.84   25.21    0.99   0.000   0.200   0.000    0.00
  20.350   15.70   27.17    0.21   0.000   0.200   0.000    0.00
  20.400   15.29   23.65   -0.27   0.000   0.200   0.000    0.00
  20.450   15.84   26.14    0.47   0.000   0.200   0.000    0.00
  20.500   16.78   22.39    0.32   0.000   0.200   0.000    0.00
  20.550   16.30   15.50   -0.01   0.000   0.200   0.000    0.00
  20.600   15.49   14.04   -0.25   0.000   0.200   0.000    0.00
  20.650   15.28   11.53    0.34   0.000   0.200   0.000    0.00
  20.700   14.53   11.24    0.08   0.000   0.200   0.000    0.00
  20.750   13.27   11.96    0.03   0.000   0.200   0.000    0.00
  20.800   14.08   10.79   -0.88   0.000   0.200   0.000    0.00
  20.850   14.52   10.90    0.36   0.000   0.200   0.000    0.00
  20.900   14.62   12.71    0.81   0.000   0.200   0.000    0.00
  20.950   14.99   12.02    0.46   0.000   0.200   0.000    0.00
  21.000   15.82   14.53    0.80   0.000   0.200   0.000    0.00
  21.050   17.03   13.81    0.60   0.000   0.200   0.000    0.00
  21.100   16.61   13.32   -0.30   0.000   0.200   0.000    0.00
  21.150   16.53   12.73    0.19   0.000   0.200   0.000    0.00
  21.200   16.69   10.14   -0.19   0.000   0.200   0.000    0.00
  21.250   16.99   14.15   -0.15   0.000   0.200   0.000    0.00
  21.300   16.68   10.84    0.71   0.000   0.200   0.000    0.00
  21.350   16.23    8.77   -0.31   0.000   0.200   0.000    0.00
  21.400   16.03    8.41   -0.88   0.000   0.200   0.000    0.00
  21.450   17.73   12.49   -1.22   0.000   0.200   0.000    0.00
  21.500   16.30   15.46   -0.73   0.000   0.200   0.000    0.00
  21.550   16.02   18.29    0.94   0.000   0.200   0.000    0.00
  21.600   15.55   23.41    0.99   0.000   0.200   0.000    0.00
  21.650   15.27   23.52    1.07   0.000   0.200   0.000    0.00
  21.700   16.16   23.31    1.66   0.000   0.200   0.000    0.00
  21.750   16.21   21.60    2.10   0.000   0.200   0.000    0.00
  21.800   16.07   21.44    1.47   0.000   0.200   0.000    0.00
  21.850   15.22   25.05    1.47   0.000   0.200   0.000    0.00
  21.900   15.17   24.35    1.22   0.000   0.200   0.000    0.00
  21.950   14.50   21.38    2.23   0.000   0.200   0.000    0.00
  22.000   14.96   15.81    2.35   0.000   0.200   0.000    0.00
  22.050   14.47   15.20    2.06   0.000   0.200   0.000    0.00
  22.100   14.83   14.19    1.42   0.000   0.200   0.000    0.00
  22.150   15.70   14.82    1.70   0.000   0.200   0.000    0.00
  22.200   15.56   15.61    1.54   0.000   0.200   0.000    0.00
  22.250   14.39   13.53    1.65   0.000   0.200   0.000    0.00
  22.300   14.05   11.31    1.47   0.000   0.200   0.000    0.00
  22.350   13.65   10.19    1.64   0.000   0.200   0.000    0.00