! This hub-height wind-speed file was generated by TurbSim (v1.06.00, 21-Sep-2012) on 03-Feb-2018 at 23:32:43.
!
! The requested statistics for this data were:
!    Mean Total Wind Speed =   11.000 m/s
!    Turbulence Intensity  =   27.654%
!
!   Time  HorSpd  WndDir  VerSpd  HorShr  VerShr  LnVShr  GstSpd
!  (sec)   (m/s)   (deg)   (m/s)     (-)     (-)     (-)   (m/s)
   0.000   11.95    0.98   -0.97   0.000   0.200   0.000    0.00
   0.050   11.66    3.43   -0.57   0.000   0.200   0.000    0.00
   0.100   11.63    5.43   -1.13   0.000   0.200   0.000    0.00
   0.150   11.26    7.00   -0.25   0.000   0.200   0.000    0.00
   0.200   11.71    3.61   -0.03   0.000   0.200   0.000    0.00
   0.250   12.10    7.40   -0.61   0.000   0.200   0.000    0.00
   0.300   12.24    7.73   -1.34   0.000   0.200   0.000    0.00
   0.350   11.90    5.70   -1.35   0.000   0.200   0.000    0.00
   0.400   12.52    4.92   -1.52   0.000   0.200   0.000    0.00
   0.450   12.77    6.34   -0.71   0.000   0.200   0.000    0.00
   0.500   12.46    5.63   -0.51   0.000   0.200   0.000    0.00
   0.550   12.56    8.60    0.56   0.000   0.200   0.000    0.00
   0.600   13.02    9.33    0.08   0.000   0.200   0.000    0.00
   0.650   13.20    6.79    0.32   0.000   0.200   0.000    0.00
   0.700   12.61    7.25    0.16   0.000   0.200   0.000    0.00
   0.750   12.55    6.99    0.49   0.000   0.200   0.000    0.00
   0.800   12.38   10.85    0.38   0.000   0.200   0.000    0.00
   0.850   12.64    8.33   -0.44   0.000   0.200   0.000    0.00
   0.900   12.44    9.91   -0.30   0.000   0.200   0.000    0.00
   0.950   11.69    5.54   -0.82   0.000   0.200   0.000    0.00
   1.000   11.84    5.18   -0.87   0.000   0.200   0.000    0.00
   1.050   12.59    4.54   -0.91   0.000   0.200   0.000    0.00
   1.100   12.86    9.30   -0.87   0.000   0.200   0.000    0.00
   1.150   12.76   13.33   -0.71   0.000   0.200   0.000    0.00
   1.200   11.93   11.83   -0.98   0.000   0.200   0.000    0.00
   1.250   12.17   15.37   -0.24   0.000   0.200   0.000    0.00
   1.300   12.03   11.50    0.22   0.000   0.200   0.000    0.00
   1.350   12.43    6.64   -0.03   0.000   0.200   0.000    0.00
   1.400   12.16    9.51    0.97   0.000   0.200   0.000    0.00
   1.450   12.50   13.35    1.34   0.000   0.200   0.000    0.00
   1.500   12.86   11.61    1.37   0.000   0.200   0.000    0.00
   1.550   12.97   12.50    1.49   0.000   0.200   0.000    0.00
   1.600   12.05   10.85   -0.29   0.000   0.200   0.000    0.00
   1.650   11.90   10.11   -0.49   0.000   0.200   0.000    0.00
   1.700   12.37    8.51   -1.39   0.000   0.200   0.000    0.00
   1.750   12.40    7.93   -1.95   0.000   0.200   0.000    0.00
   1.800   12.28    5.55   -2.21   0.000   0.200   0.000    0.00
   1.850   12.40    1.71   -2.49   0.000   0.200   0.000    0.00
   1.900   12.29    0.90   -2.92   0.000   0.200   0.000    0.00
   1.950   12.20    6.35   -2.93   0.000   0.200   0.000    0.00
   2.000   11.79    7.67   -2.92   0.000   0.200   0.000    0.00
   2.050   11.36    5.78   -2.62   0.000   0.200   0.000    0.00
   2.100   11.21    7.53   -2.15   0.000   0.200   0.000    0.00
   2.150   11.11    9.66   -1.12   0.000   0.200   0.000    0.00
   2.200   11.07   10.95   -0.42   0.000   0.200   0.000    0.00
   2.250   10.76    6.93   -1.80   0.000   0.200   0.000    0.00
   2.300   11.26   10.02   -2.23   0.000   0.200   0.000    0.00
   2.350   11.21   14.51   -2.55   0.000   0.200   0.000    0.00
   2.400   11.47   15.71   -2.41   0.000   0.200   0.000    0.00
   2.450   11.80   12.86   -1.57   0.000   0.200   0.000    0.00
   2.500   11.66   11.45   -1.41   0.000   0.200   0.000    0.00
   2.550   10.33   12.31   -1.05   0.000   0.200   0.000    0.00
   2.600   10.71   14.10   -0.17   0.000   0.200   0.000    0.00
   2.650   11.18   16.81    0.98   0.000   0.200   0.000    0.00
   2.700   11.88   18.71    1.15   0.000   0.200   0.000    0.00
   2.750   12.08   19.02    0.18   0.000   0.200   0.000    0.00
   2.800   12.31   16.84   -0.19   0.000   0.200   0.000    0.00
   2.850   11.75   16.62    1.39   0.000   0.200   0.000    0.00
   2.900   12.48   20.21    1.16   0.000   0.200   0.000    0.00
   2.950   12.44   24.10    1.07   0.000   0.200   0.000    0.00
   3.000   12.27   21.46    1.64   0.000   0.200   0.000    0.00
   3.050   12.04   19.68    1.34   0.000   0.200   0.000    0.00
   3.100   12.44   21.32    0.93   0.000   0.200   0.000    0.00
   3.150   12.03   16.99    0.30   0.000   0.200   0.000    0.00
   3.200   11.48   20.30    0.41   0.000   0.200   0.000    0.00
   3.250   11.96   20.34   -0.13   0.000   0.200   0.000    0.00
   3.300   12.00   17.91   -0.14   0.000   0.200   0.000    0.00
   3.350   12.09   10.46    0.03   0.000   0.200   0.000    0.00
   3.400   11.87    8.48    0.62   0.000   0.200   0.000    0.00
   3.450   12.38   10.30    0.95   0.000   0.200   0.000    0.00
   3.500   12.82    8.68    0.85   0.000   0.200   0.000    0.00
   3.550   12.18    6.48    1.06   0.000   0.200   0.000    0.00
   3.600   12.58    7.08    0.91   0.000   0.200   0.000    0.00
   3.650   13.57    7.78    0.65   0.000   0.200   0.000    0.00
   3.700   13.70    6.13    1.46   0.000   0.200   0.000    0.00
   3.750   13.42    7.70    1.83   0.000   0.200   0.000    0.00
   3.800   13.20    6.82    1.55   0.000   0.200   0.000    0.00
   3.850   12.84    4.89    2.14   0.000   0.200   0.000    0.00
   3.900   11.79    5.20    2.18   0.000   0.200   0.000    0.00
   3.950   11.70    4.02    1.84   0.000   0.200   0.000    0.00
   4.000   11.12    6.59    1.96   0.000   0.200   0.000    0.00
   4.050   10.66    6.95    1.57   0.000   0.200   0.000    0.00
   4.100   11.38    5.70    1.29   0.000   0.200   0.000    0.00
   4.150   11.33    6.05    0.76   0.000   0.200   0.000    0.00
   4.200   11.82    8.58    0.27   0.000   0.200   0.000    0.00
   4.250   11.72    8.35    0.21   0.000   0.200   0.000    0.00
   4.300   11.67    8.10   -0.24   0.000   0.200   0.000    0.00
   4.350   11.70   11.24    0.32   0.000   0.200   0.000    0.00
   4.400   11.75    8.66    0.63   0.000   0.200   0.000    0.00
   4.450   12.39    5.60   -0.38   0.000   0.200   0.000    0.00
   4.500   12.62    9.38   -0.11   0.000   0.200   0.000    0.00
   4.550   13.65   10.97   -0.85   0.000   0.200   0.000    0.00
   4.600   13.44    7.62   -1.36   0.000   0.200   0.000    0.00
   4.650   13.23    9.08   -1.19   0.000   0.200   0.000    0.00
   4.700   12.92    9.89   -1.25   0.000   0.200   0.000    0.00
   4.750   12.58    3.86   -0.37   0.000   0.200   0.000    0.00
   4.800   12.92    0.94   -0.11   0.000   0.200   0.000    0.00
   4.850   13.44    1.84   -0.29   0.000   0.200   0.000    0.00
   4.900   13.03    2.52   -0.76   0.000   0.200   0.000    0.00
   4.950   13.04    3.98   -0.97   0.000   0.200   0.000    0.00
   5.000   12.50    3.83   -0.36   0.000   0.200   0.000    0.00
   5.050   12.59    2.52   -0.10   0.000   0.200   0.000    0.00
   5.100   11.73    3.62   -0.74   0.000   0.200   0.000    0.00
   5.150   12.30    5.67   -0.91   0.000   0.200   0.000    0.00
   5.200   11.21    3.69   -0.35   0.000   0.200   0.000    0.00
   5.250   10.36    9.37    0.37   0.000   0.200   0.000    0.00
   5.300   10.79    7.93   -0.28   0.000   0.200   0.000    0.00
   5.350   10.63    5.15    0.33   0.000   0.200   0.000    0.00
   5.400   11.27    8.46    0.70   0.000   0.200   0.000    0.00
   5.450   12.09   10.73    0.34   0.000   0.200   0.000    0.00
   5.500   12.41   13.16    0.52   0.000   0.200   0.000    0.00
   5.550   13.03   13.67    0.51   0.000   0.200   0.000    0.00
   5.600   12.93   12.57    0.24   0.000   0.200   0.000    0.00
   5.650   13.25   10.59   -0.04   0.000   0.200   0.000    0.00
   5.700   13.22   17.06   -0.32   0.000   0.200   0.000    0.00
   5.750   13.25   15.34   -0.33   0.000   0.200   0.000    0.00
   5.800   13.17   15.01    0.15   0.000   0.200   0.000    0.00
   5.850   12.87   13.22    0.85   0.000   0.200   0.000    0.00
   5.900   12.81   15.78    0.53   0.000   0.200   0.000    0.00
   5.950   12.83   18.66   -0.16   0.000   0.200   0.000    0.00
   6.000   11.79   16.48   -0.61   0.000   0.200   0.000    0.00
   6.050   11.68   13.61   -0.58   0.000   0.200   0.000    0.00
   6.100   11.26    9.08   -0.89   0.000   0.200   0.000    0.00
   6.150   11.54   11.42   -1.19   0.000   0.200   0.000    0.00
   6.200   11.68   12.90   -1.42   0.000   0.200   0.000    0.00
   6.250   11.62   12.53   -1.19   0.000   0.200   0.000    0.00
   6.300   10.73   14.53   -0.19   0.000   0.200   0.000    0.00
   6.350   10.25   15.23    0.31   0.000   0.200   0.000    0.00
   6.400   10.34   17.24    0.49   0.000   0.200   0.000    0.00
   6.450   10.12   14.81    0.06   0.000   0.200   0.000    0.00
   6.500   10.04   14.64   -1.23   0.000   0.200   0.000    0.00
   6.550   10.72   15.60   -1.55   0.000   0.200   0.000    0.00
   6.600    9.98   12.32   -1.43   0.000   0.200   0.000    0.00
   6.650    9.77    4.47   -1.34   0.000   0.200   0.000    0.00
   6.700    9.57    5.44   -1.51   0.000   0.200   0.000    0.00
   6.750   10.75    6.45   -2.63   0.000   0.200   0.000    0.00
   6.800   10.23    3.93   -2.65   0.000   0.200   0.000    0.00
   6.850    9.78    0.98   -2.37   0.000   0.200   0.000    0.00
   6.900   10.36    0.46   -2.54   0.000   0.200   0.000    0.00
   6.950   11.31    1.88   -1.53   0.000   0.200   0.000    0.00
   7.000   11.44    6.46   -1.18   0.000   0.200   0.000    0.00
   7.050   11.38    1.29   -1.90   0.000   0.200   0.000    0.00
   7.100   11.19    1.46   -2.72   0.000   0.200   0.000    0.00
   7.150   10.67    2.66   -2.08   0.000   0.200   0.000    0.00
   7.200   10.69    0.59   -1.91   0.000   0.200   0.000    0.00
   7.250   11.35   -4.25   -2.58   0.000   0.200   0.000    0.00
   7.300   12.21   -2.65   -2.58   0.000   0.200   0.000    0.00
   7.350   11.78    3.27   -2.17   0.000   0.200   0.000    0.00
   7.400   12.89    4.85   -2.82   0.000   0.200   0.000    0.00
   7.450   12.48    5.66   -3.71   0.000   0.200   0.000    0.00
   7.500   13.00    4.34   -4.06   0.000   0.200   0.000    0.00
   7.550   13.21    6.59   -3.37   0.000   0.200   0.000    0.00
   7.600   12.98   10.54   -2.50   0.000   0.200   0.000    0.00
   7.650   12.63   13.38   -2.80   0.000   0.200   0.000    0.00
   7.700   13.14   10.44   -2.85   0.000   0.200   0.000    0.00
   7.750   13.51   14.77   -2.39   0.000   0.200   0.000    0.00
   7.800   14.17   14.11   -1.90   0.000   0.200   0.000    0.00
   7.850   14.45   13.28   -1.67   0.000   0.200   0.000    0.00
   7.900   14.16   13.86   -1.89   0.000   0.200   0.000    0.00
   7.950   13.74    8.86   -1.95   0.000   0.200   0.000    0.00
   8.000   14.35   11.33   -1.48   0.000   0.200   0.000    0.00
   8.050   14.30   11.54   -1.47   0.000   0.200   0.000    0.00
   8.100   14.15    5.14   -2.22   0.000   0.200   0.000    0.00
   8.150   13.71    4.35   -2.53   0.000   0.200   0.000    0.00
   8.200   13.76    3.51   -2.13   0.000   0.200   0.000    0.00
   8.250   13.84    4.44   -2.43   0.000   0.200   0.000    0.00
   8.300   13.99    4.58   -2.06   0.000   0.200   0.000    0.00
   8.350   14.02    7.71   -1.12   0.000   0.200   0.000    0.00
   8.400   13.47    6.54   -0.86   0.000   0.200   0.000    0.00
   8.450   13.53    6.70   -0.81   0.000   0.200   0.000    0.00
   8.500   13.23    9.46   -1.14   0.000   0.200   0.000    0.00
   8.550   13.23   10.36   -0.90   0.000   0.200   0.000    0.00
   8.600   12.99   10.06   -1.30   0.000   0.200   0.000    0.00
   8.650   12.56    6.64   -1.42   0.000   0.200   0.000    0.00
   8.700   13.14    5.79   -0.37   0.000   0.200   0.000    0.00
   8.750   14.13    6.63   -0.72   0.000   0.200   0.000    0.00
   8.800   13.71    6.81   -0.17   0.000   0.200   0.000    0.00
   8.850   13.76    4.27   -0.36   0.000   0.200   0.000    0.00
   8.900   14.35    6.23   -0.92   0.000   0.200   0.000    0.00
   8.950   14.08    8.77   -1.04   0.000   0.200   0.000    0.00
   9.000   14.52    4.78   -1.44   0.000   0.200   0.000    0.00
   9.050   14.82    2.91   -2.19   0.000   0.200   0.000    0.00
   9.100   15.03    3.31   -2.13   0.000   0.200   0.000    0.00
   9.150   15.03    6.24   -2.33   0.000   0.200   0.000    0.00
   9.200   14.05    9.33   -1.47   0.000   0.200   0.000    0.00
   9.250   14.22    6.85   -0.96   0.000   0.200   0.000    0.00
   9.300   13.95    9.84   -1.01   0.000   0.200   0.000    0.00
   9.350   13.74   11.42   -1.63   0.000   0.200   0.000    0.00
   9.400   14.71    7.32   -2.67   0.000   0.200   0.000    0.00
   9.450   14.98    3.77   -2.58   0.000   0.200   0.000    0.00
   9.500   14.73    4.89   -2.41   0.000   0.200   0.000    0.00
   9.550   14.76    7.74   -1.96   0.000   0.200   0.000    0.00
   9.600   15.37   10.29   -2.13   0.000   0.200   0.000    0.00
   9.650   15.62   12.59   -1.48   0.000   0.200   0.000    0.00
   9.700   15.80   10.38   -1.92   0.000   0.200   0.000    0.00
   9.750   16.60    6.42   -2.41   0.000   0.200   0.000    0.00
   9.800   17.13    6.80   -2.26   0.000   0.200   0.000    0.00
   9.850   16.93    4.41   -2.77   0.000   0.200   0.000    0.00
   9.900   16.85    1.37   -2.94   0.000   0.200   0.000    0.00
   9.950   16.07    2.56   -2.72   0.000   0.200   0.000    0.00
  10.000   16.11    1.79   -1.96   0.000   0.200   0.000    0.00
  10.050   16.72    3.27   -1.97   0.000   0.200   0.000    0.00
  10.100   16.92    8.82   -2.13   0.000   0.200   0.000    0.00
  10.150   16.81    9.33   -2.66   0.000   0.200   0.000    0.00
  10.200   17.24    7.81   -2.38   0.000   0.200   0.000    0.00
  10.250   17.42    6.29   -2.18   0.000   0.200   0.000    0.00
  10.300   16.96    5.56   -1.52   0.000   0.200   0.000    0.00
  10.350   17.27    6.06   -1.52   0.000   0.200   0.000    0.00
  10.400   17.12    3.20   -1.21   0.000   0.200   0.000    0.00
  10.450   17.35    5.30   -1.04   0.000   0.200   0.000    0.00
  10.500   17.29    4.34   -1.33   0.000   0.200   0.000    0.00
  10.550   17.07    2.57   -1.74   0.000   0.200   0.000    0.00
  10.600   16.79    3.64   -1.28   0.000   0.200   0.000    0.00
  10.650   17.27    2.76   -1.86   0.000   0.200   0.000    0.00
  10.700   16.96    2.64   -1.66   0.000   0.200   0.000    0.00
  10.750   16.76    0.29   -0.46   0.000   0.200   0.000    0.00
  10.800   16.73   -1.06   -0.88   0.000   0.200   0.000    0.00
  10.850   16.56   -0.13   -0.81   0.000   0.200   0.000    0.00
  10.900   16.53    1.35   -1.04   0.000   0.200   0.000    0.00
  10.950   16.63    3.87   -0.29   0.000   0.200   0.000    0.00
  11.000   16.92    3.91    0.52   0.000   0.200   0.000    0.00
  11.050   16.84    1.80    1.31   0.000   0.200   0.000    0.00
  11.100   17.29   -0.51    0.94   0.000   0.200   0.000    0.00
  11.150   17.18    1.91    0.54   0.000   0.200   0.000    0.00
  11.200   16.79    0.55    0.56   0.000   0.200   0.000    0.00
  11.250   15.84    2.62    0.42   0.000   0.200   0.000    0.00
  11.300   16.23    2.58    0.64   0.000   0.200   0.000    0.00
  11.350   15.86    2.96    1.51   0.000   0.200   0.000    0.00
  11.400   15.18    0.84    0.52   0.000   0.200   0.000    0.00
  11.450   15.19    2.93    1.02   0.000   0.200   0.000    0.00
  11.500   14.40    1.94    1.09   0.000   0.200   0.000    0.00
  11.550   14.69   -2.35    1.26   0.000   0.200   0.000    0.00
  11.600   14.57   -6.08    0.95   0.000   0.200   0.000    0.00
  11.650   14.89   -3.84    0.85   0.000   0.200   0.000    0.00
  11.700   15.51   -4.30    0.69   0.000   0.200   0.000    0.00
  11.750   15.81   -3.61    1.08   0.000   0.200   0.000    0.00
  11.800   16.63   -2.46   -0.22   0.000   0.200   0.000    0.00
  11.850   16.31   -1.62    0.92   0.000   0.200   0.000    0.00
  11.900   16.27    1.61    0.77   0.000   0.200   0.000    0.00
  11.950   16.75    1.40    0.62   0.000   0.200   0.000    0.00
  12.000   15.56    2.40    1.10   0.000   0.200   0.000    0.00
  12.050   14.95    2.43    1.07   0.000   0.200   0.000    0.00
  12.100   15.69    1.12    1.18   0.000   0.200   0.000    0.00
  12.150   15.48   -0.12    1.30   0.000   0.200   0.000    0.00
  12.200   15.46    1.13    0.93   0.000   0.200   0.000    0.00
  12.250   15.43   -0.82   -0.24   0.000   0.200   0.000    0.00
  12.300   15.89   -0.95   -0.91   0.000   0.200   0.000    0.00
  12.350   15.92    2.44   -0.41   0.000   0.200   0.000    0.00
  12.400   14.61    1.58    0.49   0.000   0.200   0.000    0.00
  12.450   14.73    0.78    0.32   0.000   0.200   0.000    0.00
  12.500   15.26    0.52   -1.37   0.000   0.200   0.000    0.00
  12.550   14.78   -2.70   -0.67   0.000   0.200   0.000    0.00
  12.600   14.34   -2.82   -1.31   0.000   0.200   0.000    0.00
  12.650   14.71   -3.27   -0.30   0.000   0.200   0.000    0.00
  12.700   14.73   -5.13    0.20   0.000   0.200   0.000    0.00
  12.750   15.40   -2.82   -1.07   0.000   0.200   0.000    0.00
  12.800   14.98   -3.11   -1.33   0.000   0.200   0.000    0.00
  12.850   14.81   -1.88   -1.20   0.000   0.200   0.000    0.00
  12.900   15.42    0.78   -1.11   0.000   0.200   0.000    0.00
  12.950   15.83    0.28   -0.92   0.000   0.200   0.000    0.00
  13.000   15.54   -1.62   -0.90   0.000   0.200   0.000    0.00
  13.050   15.87   -0.81   -1.28   0.000   0.200   0.000    0.00
  13.100   15.23   -2.84   -1.65   0.000   0.200   0.000    0.00
  13.150   15.51   -1.09   -1.92   0.000   0.200   0.000    0.00
  13.200   15.27   -1.47   -1.99   0.000   0.200   0.000    0.00
  13.250   15.49   -1.23   -1.35   0.000   0.200   0.000    0.00
  13.300   16.18    0.42   -0.63   0.000   0.200   0.000    0.00
  13.350   16.55   -0.27   -0.96   0.000   0.200   0.000    0.00
  13.400   16.73    0.39   -0.94   0.000   0.200   0.000    0.00
  13.450   16.37   -2.43   -1.03   0.000   0.200   0.000    0.00
  13.500   15.67   -4.92   -0.83   0.000   0.200   0.000    0.00
  13.550   15.96   -2.97   -1.81   0.000   0.200   0.000    0.00
  13.600   15.09   -2.04   -0.84   0.000   0.200   0.000    0.00
  13.650   14.40   -1.56   -0.69   0.000   0.200   0.000    0.00
  13.700   13.70    2.25   -0.34   0.000   0.200   0.000    0.00
  13.750   14.09    0.30   -0.94   0.000   0.200   0.000    0.00
  13.800   14.45   -0.38   -1.61   0.000   0.200   0.000    0.00
  13.850   14.03   -0.03   -1.43   0.000   0.200   0.000    0.00
  13.900   14.45   -1.69   -1.89   0.000   0.200   0.000    0.00
  13.950   15.11    0.88   -0.84   0.000   0.200   0.000    0.00
  14.000   14.58   -0.74   -0.49   0.000   0.200   0.000    0.00
  14.050   15.02   -3.17   -0.74   0.000   0.200   0.000    0.00
  14.100   15.42   -3.59   -0.86   0.000   0.200   0.000    0.00
  14.150   15.52   -1.09   -0.96   0.000   0.200   0.000    0.00
  14.200   15.65    0.96   -0.01   0.000   0.200   0.000    0.00
  14.250   16.09    0.64    0.78   0.000   0.200   0.000    0.00
  14.300   16.30   -1.02    0.13   0.000   0.200   0.000    0.00
  14.350   15.41   -3.32   -0.11   0.000   0.200   0.000    0.00
  14.400   15.62   -4.24   -0.01   0.000   0.200   0.000    0.00
  14.450   15.60   -7.56    0.08   0.000   0.200   0.000    0.00
  14.500   15.20   -3.71    0.09   0.000   0.200   0.000    0.00
  14.550   15.79   -3.37   -0.12   0.000   0.200   0.000    0.00
  14.600   15.85   -1.37   -0.13   0.000   0.200   0.000    0.00
  14.650   15.57   -3.81    0.20   0.000   0.200   0.000    0.00
  14.700   14.89   -5.30   -0.05   0.000   0.200   0.000    0.00
  14.750   15.40   -3.21   -0.81   0.000   0.200   0.000    0.00
  14.800   14.94   -3.60    0.04   0.000   0.200   0.000    0.00
  14.850   15.27   -0.96   -0.90   0.000   0.200   0.000    0.00
  14.900   15.77    1.83   -1.11   0.000   0.200   0.000    0.00
  14.950   15.61    3.12   -0.42   0.000   0.200   0.000    0.00
  15.000   14.83    4.00   -0.92   0.000   0.200   0.000    0.00
  15.050   15.62    3.08   -0.53   0.000   0.200   0.000    0.00
  15.100   15.36    4.58   -0.14   0.000   0.200   0.000    0.00
  15.150   16.50    1.27   -0.90   0.000   0.200   0.000    0.00
  15.200   15.77    3.62   -1.22   0.000   0.200   0.000    0.00
  15.250   15.50    0.21   -1.21   0.000   0.200   0.000    0.00
  15.300   16.13    1.53   -1.33   0.000   0.200   0.000    0.00
  15.350   16.32    1.91   -1.38   0.000   0.200   0.000    0.00
  15.400   15.77    4.55   -0.56   0.000   0.200   0.000    0.00
  15.450   15.47    4.89   -0.45   0.000   0.200   0.000    0.00
  15.500   14.75    0.89   -0.66   0.000   0.200   0.000    0.00
  15.550   14.14   -1.55   -0.94   0.000   0.200   0.000    0.00
  15.600   14.68   -2.93   -1.07   0.000   0.200   0.000    0.00
  15.650   14.64   -4.02   -1.25   0.000   0.200   0.000    0.00
  15.700   14.62   -5.53   -0.69   0.000   0.200   0.000    0.00
  15.750   14.39   -4.58   -0.45   0.000   0.200   0.000    0.00
  15.800   14.57   -1.82   -0.13   0.000   0.200   0.000    0.00
  15.850   15.14   -2.96   -0.13   0.000   0.200   0.000    0.00
  15.900   14.94   -2.37   -0.06   0.000   0.200   0.000    0.00
  15.950   15.17    0.82   -0.40   0.000   0.200   0.000    0.00
  16.000   15.29    1.18   -0.57   0.000   0.200   0.000    0.00
  16.050   14.92    0.92   -0.57   0.000   0.200   0.000    0.00
  16.100   15.00    0.40   -0.54   0.000   0.200   0.000    0.00
  16.150   15.35   -0.76   -0.71   0.000   0.200   0.000    0.00
  16.200   15.02   -1.88   -0.38   0.000   0.200   0.000    0.00
  16.250   15.31   -0.51   -0.56   0.000   0.200   0.000    0.00
  16.300   14.94    3.31   -1.27   0.000   0.200   0.000    0.00
  16.350   15.24    3.99   -1.31   0.000   0.200   0.000    0.00
  16.400   15.47    2.51   -1.06   0.000   0.200   0.000    0.00
  16.450   14.33    4.16   -0.97   0.000   0.200   0.000    0.00
  16.500   14.56    3.36   -0.50   0.000   0.200   0.000    0.00
  16.550   14.72    2.77   -0.85   0.000   0.200   0.000    0.00
  16.600   14.53    0.00   -1.17   0.000   0.200   0.000    0.00
  16.650   14.10   -2.09   -0.61   0.000   0.200   0.000    0.00
  16.700   13.87   -2.33   -1.11   0.000   0.200   0.000    0.00
  16.750   13.34   -3.59   -0.99   0.000   0.200   0.000    0.00
  16.800   13.37   -2.33   -0.76   0.000   0.200   0.000    0.00
  16.850   13.19   -2.46   -0.09   0.000   0.200   0.000    0.00
  16.900   13.43   -2.19    0.37   0.000   0.200   0.000    0.00
  16.950   13.65    1.68    0.28   0.000   0.200   0.000    0.00
  17.000   13.25    1.03   -0.06   0.000   0.200   0.000    0.00
  17.050   12.76   -1.69    0.51   0.000   0.200   0.000    0.00
  17.100   12.34    1.20   -0.37   0.000   0.200   0.000    0.00
  17.150   12.12   -3.24   -1.45   0.000   0.200   0.000    0.00
  17.200   12.18   -4.75   -2.51   0.000   0.200   0.000    0.00
  17.250   12.54   -5.33   -1.94   0.000   0.200   0.000    0.00
  17.300   12.13   -7.28   -1.75   0.000   0.200   0.000    0.00
  17.350   12.30   -3.02   -1.82   0.000   0.200   0.000    0.00
  17.400   12.38   -7.25   -1.38   0.000   0.200   0.000    0.00
  17.450   12.17   -6.71   -1.52   0.000   0.200   0.000    0.00
  17.500   12.33   -9.36   -1.53   0.000   0.200   0.000    0.00
  17.550   11.84   -8.40   -2.04   0.000   0.200   0.000    0.00
  17.600   12.12   -6.93   -2.09   0.000   0.200   0.000    0.00
  17.650   12.83  -12.06   -2.72   0.000   0.200   0.000    0.00
  17.700   13.13  -11.24   -2.17   0.000   0.200   0.000    0.00
  17.750   13.27  -15.35   -1.88   0.000   0.200   0.000    0.00
  17.800   13.36  -12.62   -2.44   0.000   0.200   0.000    0.00
  17.850   13.10  -14.82   -2.23   0.000   0.200   0.000    0.00
  17.900   13.57  -17.03   -2.89   0.000   0.200   0.000    0.00
  17.950   13.24  -12.70   -3.46   0.000   0.200   0.000    0.00
  18.000   12.34  -12.65   -3.38   0.000   0.200   0.000    0.00
  18.050   12.56   -9.25   -3.24   0.000   0.200   0.000    0.00
  18.100   13.24   -5.29   -2.64   0.000   0.200   0.000    0.00
  18.150   13.53   -5.72   -2.35   0.000   0.200   0.000    0.00
  18.200   13.51   -5.22   -2.02   0.000   0.200   0.000    0.00
  18.250   12.82   -6.29   -2.74   0.000   0.200   0.000    0.00
  18.300   12.22   -4.24   -1.89   0.000   0.200   0.000    0.00
  18.350   12.23   -3.57   -2.31   0.000   0.200   0.000    0.00
  18.400   13.26   -7.72   -2.03   0.000   0.200   0.000    0.00
  18.450   13.59   -5.83   -1.74   0.000   0.200   0.000    0.00
  18.500   14.05   -7.00   -1.90   0.000   0.200   0.000    0.00
  18.550   13.32   -4.80   -2.19   0.000   0.200   0.000    0.00
  18.600   13.49   -6.17   -2.80   0.000   0.200   0.000    0.00
  18.650   13.25   -8.92   -2.62   0.000   0.200   0.000    0.00
  18.700   13.36   -2.83   -2.40   0.000   0.200   0.000    0.00
  18.750   13.43   -1.88   -2.46   0.000   0.200   0.000    0.00
  18.800   13.05   -0.03   -1.98   0.000   0.200   0.000    0.00
  18.850   13.44   -0.90   -1.86   0.000   0.200   0.000    0.00
  18.900   13.60   -1.40   -1.48   0.000   0.200   0.000    0.00
  18.950   13.84    0.37   -1.58   0.000   0.200   0.000    0.00
  19.000   13.82    2.82   -1.42   0.000   0.200   0.000    0.00
  19.050   13.89    4.60   -0.78   0.000   0.200   0.000    0.00
  19.100   13.35    4.64   -1.78   0.000   0.200   0.000    0.00
  19.150   13.05    2.23   -1.12   0.000   0.200   0.000    0.00
  19.200   13.23    1.27   -0.90   0.000   0.200   0.000    0.00
  19.250   13.44    1.60   -2.11   0.000   0.200   0.000    0.00
  19.300   13.62   -3.05   -1.94   0.000   0.200   0.000    0.00
  19.350   13.30   -7.27   -2.01   0.000   0.200   0.000    0.00
  19.400   13.27   -2.12   -1.77   0.000   0.200   0.000    0.00
  19.450   13.11    0.25   -1.46   0.000   0.200   0.000    0.00
  19.500   12.90    0.35   -1.35   0.000   0.200   0.000    0.00
  19.550   13.77   -4.55   -1.86   0.000   0.200   0.000    0.00
  19.600   14.48   -8.23   -2.48   0.000   0.200   0.000    0.00
  19.650   14.07  -11.97   -2.27   0.000   0.200   0.000    0.00
  19.700   13.94   -8.90   -2.65   0.000   0.200   0.000    0.00
  19.750   13.71   -9.00   -2.76   0.000   0.200   0.000    0.00
  19.800   14.03   -7.11   -2.67   0.000   0.200   0.000    0.00
  19.850   14.05   -8.87   -2.60   0.000   0.200   0.000    0.00
  19.900   14.73  -11.64   -2.24   0.000   0.200   0.000    0.00
  19.950   14.52  -12.54   -1.34   0.000   0.200   0.000    0.00
  20.000   14.96  -12.05   -0.89   0.000   0.200   0.000    0.00
  20.050   14.59   -8.73   -2.03   0.000   0.200   0.000    0.00
  20.100   14.13   -5.86   -1.86   0.000   0.200   0.000    0.00
  20.150   14.64   -7.84   -1.15   0.000   0.200   0.000    0.00
  20.200   15.20   -7.90   -1.59   0.000   0.200   0.000    0.00
  20.250   14.77   -9.62   -1.60   0.000   0.200   0.000    0.00
  20.300   14.67   -6.53   -1.65   0.000   0.200   0.000    0.00
  20.350   15.06   -3.69   -1.73   0.000   0.200   0.000    0.00
  20.400   14.74   -2.58   -1.82   0.000   0.200   0.000    0.00
  20.450   14.74   -0.55   -2.26   0.000   0.200   0.000    0.00
  20.500   14.41    0.86   -2.62   0.000   0.200   0.000    0.00
  20.550   14.19    3.53   -3.18   0.000   0.200   0.000    0.00
  20.600   14.52    1.53   -3.43   0.000   0.200   0.000    0.00
  20.650   14.78    3.73   -2.33   0.000   0.200   0.000    0.00
  20.700   15.07    2.08   -1.98   0.000   0.200   0.000    0.00
  20.750   15.60    0.50   -0.88   0.000   0.200   0.000    0.00
  20.800   15.76    0.00   -0.45   0.000   0.200   0.000    0.00
  20.850   15.46    4.15   -1.61   0.000   0.200   0.000    0.00
  20.900   15.60    4.60   -1.02   0.000   0.200   0.000    0.00
  20.950   14.40    2.30   -1.23   0.000   0.200   0.000    0.00
  21.000   14.82    2.37   -1.27   0.000   0.200   0.000    0.00
  21.050   15.01    2.51   -0.88   0.000   0.200   0.000    0.00
  21.100   14.68   -0.16   -1.82   0.000   0.200   0.000    0.00
  21.150   13.88    0.11   -2.42   0.000   0.200   0.000    0.00
  21.200   14.28    1.04   -2.33   0.000   0.200   0.000    0.00
  21.250   14.26    1.73   -1.67   0.000   0.200   0.000    0.00
  21.300   14.96    1.22   -1.75   0.000   0.200   0.000    0.00
  21.350   14.91   -0.76   -1.88   0.000   0.200   0.000    0.00
  21.400   15.00   -1.40   -1.97   0.000   0.200   0.000    0.00
  21.450   14.59   -1.32   -2.21   0.000   0.200   0.000    0.00
  21.500   14.78   -2.66   -1.94   0.000   0.200   0.000    0.00
  21.550   14.83   -3.72   -2.04   0.000   0.200   0.000    0.00
  21.600   15.12   -4.60   -2.01   0.000   0.200   0.000    0.00
  21.650   15.15   -2.90   -1.82   0.000   0.200   0.000    0.00
  21.700   15.54   -4.65   -1.18   0.000   0.200   0.000    0.00
  21.750   15.79   -5.88   -1.49   0.000   0.200   0.000    0.00
  21.800   15.47   -5.72   -1.47   0.000   0.200   0.000    0.00
  21.850   15.87   -3.37   -1.53   0.000   0.200   0.000    0.00
  21.900   15.85   -0.08   -2.57   0.000   0.200   0.000    0.00
  21.950   15.82    2.95   -2.46   0.000   0.200   0.000    0.00
  22.000   15.56    3.77   -2.49   0.000   0.200   0.000    0.00
  22.050   15.30    5.19   -2.62   0.000   0.200   0.000    0.00
  22.100   14.60    6.13   -2.40   0.000   0.200   0.000    0.00
  22.150   14.82    6.97   -1.80   0.000   0.200   0.000    0.00
  22.200   15.19    5.60   -2.08   0.000   0.200   0.000    0.00
  22.250   15.23    7.80   -1.49   0.000   0.200   0.000    0.00
  22.300   15.28    6.00   -1.54   0.000   0.200   0.000    0.00
  22.350   14.47    4.01   -1.96   0.000   0.200   0.000    0.00