! This hub-height wind-speed file was generated by TurbSim (v1.06.00, 21-Sep-2012) on 03-Feb-2018 at 23:30:27.
!
! The requested statistics for this data were:
!    Mean Total Wind Speed =   17.000 m/s
!    Turbulence Intensity  =   20.740%
!
!   Time  HorSpd  WndDir  VerSpd  HorShr  VerShr  LnVShr  GstSpd
!  (sec)   (m/s)   (deg)   (m/s)     (-)     (-)     (-)   (m/s)
   0.000   21.37    3.09   -1.51   0.000   0.200   0.000    0.00
   0.050   22.06    1.77   -1.11   0.000   0.200   0.000    0.00
   0.100   21.82    5.95   -1.57   0.000   0.200   0.000    0.00
   0.150   22.83    7.28   -1.80   0.000   0.200   0.000    0.00
   0.200   23.16    6.58   -1.37   0.000   0.200   0.000    0.00
   0.250   23.24    4.46   -2.33   0.000   0.200   0.000    0.00
   0.300   23.17    2.16   -2.17   0.000   0.200   0.000    0.00
   0.350   23.17    2.24   -3.05   0.000   0.200   0.000    0.00
   0.400   23.04    4.03   -1.72   0.000   0.200   0.000    0.00
   0.450   23.09    6.13   -1.03   0.000   0.200   0.000    0.00
   0.500   23.26    6.01   -1.24   0.000   0.200   0.000    0.00
   0.550   22.58    8.02   -1.71   0.000   0.200   0.000    0.00
   0.600   21.38    7.46   -2.20   0.000   0.200   0.000    0.00
   0.650   21.20    6.60   -1.59   0.000   0.200   0.000    0.00
   0.700   20.55    7.04   -2.59   0.000   0.200   0.000    0.00
   0.750   19.74    7.93   -2.79   0.000   0.200   0.000    0.00
   0.800   19.18   14.16   -3.22   0.000   0.200   0.000    0.00
   0.850   18.58   13.90   -3.11   0.000   0.200   0.000    0.00
   0.900   18.91   13.19   -2.47   0.000   0.200   0.000    0.00
   0.950   18.60   13.85   -1.69   0.000   0.200   0.000    0.00
   1.000   20.56   13.20   -2.56   0.000   0.200   0.000    0.00
   1.050   21.49    9.68   -2.85   0.000   0.200   0.000    0.00
   1.100   21.25    8.06   -2.64   0.000   0.200   0.000    0.00
   1.150   21.91    7.38   -0.74   0.000   0.200   0.000    0.00
   1.200   22.36    4.67   -1.65   0.000   0.200   0.000    0.00
   1.250   21.51    5.06   -2.65   0.000   0.200   0.000    0.00
   1.300   21.10    7.62   -2.47   0.000   0.200   0.000    0.00
   1.350   20.68    7.47   -2.73   0.000   0.200   0.000    0.00
   1.400   20.96    8.82   -2.45   0.000   0.200   0.000    0.00
   1.450   21.49   11.44   -0.66   0.000   0.200   0.000    0.00
   1.500   21.77   10.33    1.70   0.000   0.200   0.000    0.00
   1.550   21.80   10.21    1.01   0.000   0.200   0.000    0.00
   1.600   22.11   12.27   -0.16   0.000   0.200   0.000    0.00
   1.650   21.94   11.08    0.51   0.000   0.200   0.000    0.00
   1.700   20.94   12.32    0.34   0.000   0.200   0.000    0.00
   1.750   21.22   10.46    1.02   0.000   0.200   0.000    0.00
   1.800   21.18   10.34    2.01   0.000   0.200   0.000    0.00
   1.850   22.30   16.23    1.56   0.000   0.200   0.000    0.00
   1.900   20.88   13.55   -0.34   0.000   0.200   0.000    0.00
   1.950   20.24   11.57    0.32   0.000   0.200   0.000    0.00
   2.000   21.18   13.09   -0.68   0.000   0.200   0.000    0.00
   2.050   21.79   11.86   -1.67   0.000   0.200   0.000    0.00
   2.100   22.51   12.14   -1.41   0.000   0.200   0.000    0.00
   2.150   21.16   11.84    0.92   0.000   0.200   0.000    0.00
   2.200   20.49   12.25    2.27   0.000   0.200   0.000    0.00
   2.250   19.82    8.70    1.89   0.000   0.200   0.000    0.00
   2.300   19.89    6.60    1.00   0.000   0.200   0.000    0.00
   2.350   20.29    6.81   -0.57   0.000   0.200   0.000    0.00
   2.400   21.07    9.39    0.43   0.000   0.200   0.000    0.00
   2.450   21.54    9.22   -0.68   0.000   0.200   0.000    0.00
   2.500   21.95    7.37   -0.78   0.000   0.200   0.000    0.00
   2.550   21.86    7.90   -0.39   0.000   0.200   0.000    0.00
   2.600   21.22    7.93   -2.32   0.000   0.200   0.000    0.00
   2.650   20.20    7.87   -2.16   0.000   0.200   0.000    0.00
   2.700   20.85    6.68   -1.01   0.000   0.200   0.000    0.00
   2.750   21.86    5.93   -0.61   0.000   0.200   0.000    0.00
   2.800   21.64    4.62   -0.51   0.000   0.200   0.000    0.00
   2.850   21.66    0.70   -0.99   0.000   0.200   0.000    0.00
   2.900   20.79    1.82   -0.44   0.000   0.200   0.000    0.00
   2.950   20.74    0.90   -0.96   0.000   0.200   0.000    0.00
   3.000   21.03   -1.41   -0.84   0.000   0.200   0.000    0.00
   3.050   20.41   -0.11   -1.43   0.000   0.200   0.000    0.00
   3.100   21.66   -3.41   -1.51   0.000   0.200   0.000    0.00
   3.150   21.38   -1.80   -2.27   0.000   0.200   0.000    0.00
   3.200   21.65   -3.33   -1.29   0.000   0.200   0.000    0.00
   3.250   21.14   -1.61   -1.95   0.000   0.200   0.000    0.00
   3.300   20.38   -3.52   -0.85   0.000   0.200   0.000    0.00
   3.350   19.56   -2.32   -1.04   0.000   0.200   0.000    0.00
   3.400   20.19   -3.66   -1.18   0.000   0.200   0.000    0.00
   3.450   20.42   -4.47   -1.53   0.000   0.200   0.000    0.00
   3.500   19.76   -5.52   -1.87   0.000   0.200   0.000    0.00
   3.550   19.14   -3.46   -1.40   0.000   0.200   0.000    0.00
   3.600   19.05   -4.68   -1.04   0.000   0.200   0.000    0.00
   3.650   19.13   -3.70   -0.46   0.000   0.200   0.000    0.00
   3.700   18.80   -4.38   -0.97   0.000   0.200   0.000    0.00
   3.750   19.28   -3.35   -1.74   0.000   0.200   0.000    0.00
   3.800   20.05   -0.92   -2.22   0.000   0.200   0.000    0.00
   3.850   20.24    0.75   -2.55   0.000   0.200   0.000    0.00
   3.900   19.45   -1.50   -3.30   0.000   0.200   0.000    0.00
   3.950   18.87   -0.38   -3.74   0.000   0.200   0.000    0.00
   4.000   19.78   -0.64   -3.64   0.000   0.200   0.000    0.00
   4.050   20.79   -0.03   -2.76   0.000   0.200   0.000    0.00
   4.100   21.26    2.04   -3.30   0.000   0.200   0.000    0.00
   4.150   20.56    7.38   -1.41   0.000   0.200   0.000    0.00
   4.200   20.76   10.19   -0.50   0.000   0.200   0.000    0.00
   4.250   21.89   10.33   -0.94   0.000   0.200   0.000    0.00
   4.300   20.68   12.57   -0.84   0.000   0.200   0.000    0.00
   4.350   20.70   13.08   -0.68   0.000   0.200   0.000    0.00
   4.400   20.02   13.86    0.69   0.000   0.200   0.000    0.00
   4.450   19.78   12.24    1.34   0.000   0.200   0.000    0.00
   4.500   19.49   10.14    0.09   0.000   0.200   0.000    0.00
   4.550   19.07   10.73    0.34   0.000   0.200   0.000    0.00
   4.600   18.51   12.84    0.76   0.000   0.200   0.000    0.00
   4.650   17.70    9.63    0.75   0.000   0.200   0.000    0.00
   4.700   18.01    8.46   -0.50   0.000   0.200   0.000    0.00
   4.750   18.64    6.47   -0.19   0.000   0.200   0.000    0.00
   4.800   18.75    7.30    0.37   0.000   0.200   0.000    0.00
   4.850   19.24    9.13    1.22   0.000   0.200   0.000    0.00
   4.900   18.25    8.65    0.46   0.000   0.200   0.000    0.00
   4.950   17.50   10.78    1.42   0.000   0.200   0.000    0.00
   5.000   18.05    9.32    0.73   0.000   0.200   0.000    0.00
   5.050   17.51    7.59    0.55   0.000   0.200   0.000    0.00
   5.100   17.71    6.32    0.42   0.000   0.200   0.000    0.00
   5.150   17.53    5.89   -0.08   0.000   0.200   0.000    0.00
   5.200   17.70    3.38    0.28   0.000   0.200   0.000    0.00
   5.250   18.32    4.70    1.18   0.000   0.200   0.000    0.00
   5.300   19.56    3.84    1.08   0.000   0.200   0.000    0.00
   5.350   19.39    3.00    0.78   0.000   0.200   0.000    0.00
   5.400   20.73    3.51    1.14   0.000   0.200   0.000    0.00
   5.450   20.55    4.86    1.17   0.000   0.200   0.000    0.00
   5.500   20.88   -1.47   -0.35   0.000   0.200   0.000    0.00
   5.550   21.07   -2.58   -0.74   0.000   0.200   0.000    0.00
   5.600   20.25    1.79   -0.40   0.000   0.200   0.000    0.00
   5.650   20.95    1.92    0.35   0.000   0.200   0.000    0.00
   5.700   20.77    1.04   -1.08   0.000   0.200   0.000    0.00
   5.750   19.58   -2.49   -2.35   0.000   0.200   0.000    0.00
   5.800   20.02   -3.38   -1.47   0.000   0.200   0.000    0.00
   5.850   20.42   -1.35   -1.57   0.000   0.200   0.000    0.00
   5.900   19.63   -2.76   -2.42   0.000   0.200   0.000    0.00
   5.950   20.43   -3.89   -1.64   0.000   0.200   0.000    0.00
   6.000   20.91   -2.97   -1.14   0.000   0.200   0.000    0.00
   6.050   20.78   -1.59   -1.70   0.000   0.200   0.000    0.00
   6.100   21.49   -1.49   -1.17   0.000   0.200   0.000    0.00
   6.150   21.90   -4.64   -0.57   0.000   0.200   0.000    0.00
   6.200   23.37   -5.57   -1.73   0.000   0.200   0.000    0.00
   6.250   22.19   -6.09   -2.55   0.000   0.200   0.000    0.00
   6.300   22.33   -7.32   -1.92   0.000   0.200   0.000    0.00
   6.350   23.69   -6.49   -2.54   0.000   0.200   0.000    0.00
   6.400   24.06   -5.71   -2.42   0.000   0.200   0.000    0.00
   6.450   23.24   -4.53   -2.97   0.000   0.200   0.000    0.00
   6.500   22.90   -7.12   -2.93   0.000   0.200   0.000    0.00
   6.550   22.63  -11.47   -3.56   0.000   0.200   0.000    0.00
   6.600   23.73  -10.78   -3.27   0.000   0.200   0.000    0.00
   6.650   24.02  -10.16   -4.79   0.000   0.200   0.000    0.00
   6.700   24.35   -9.31   -5.42   0.000   0.200   0.000    0.00
   6.750   24.90  -10.75   -4.53   0.000   0.200   0.000    0.00
   6.800   24.91   -7.72   -4.68   0.000   0.200   0.000    0.00
   6.850   25.34   -6.65   -5.23   0.000   0.200   0.000    0.00
   6.900   24.82   -5.19   -5.18   0.000   0.200   0.000    0.00
   6.950   25.06   -8.45   -5.02   0.000   0.200   0.000    0.00
   7.000   25.92   -9.76   -4.36   0.000   0.200   0.000    0.00
   7.050   26.23   -7.74   -2.48   0.000   0.200   0.000    0.00
   7.100   25.30   -6.15   -2.60   0.000   0.200   0.000    0.00
   7.150   26.42   -6.88   -2.12   0.000   0.200   0.000    0.00
   7.200   26.50   -7.15   -2.50   0.000   0.200   0.000    0.00
   7.250   27.72   -5.11   -2.74   0.000   0.200   0.000    0.00
   7.300   27.06   -3.58   -2.41   0.000   0.200   0.000    0.00
   7.350   27.50   -4.90   -4.53   0.000   0.200   0.000    0.00
   7.400   27.38   -3.30   -4.79   0.000   0.200   0.000    0.00
   7.450   27.09    0.48   -4.92   0.000   0.200   0.000    0.00
   7.500   27.83   -0.54   -3.70   0.000   0.200   0.000    0.00
   7.550   27.15   -1.83   -4.01   0.000   0.200   0.000    0.00
   7.600   26.88    0.00   -4.20   0.000   0.200   0.000    0.00
   7.650   25.95   -0.69   -3.99   0.000   0.200   0.000    0.00
   7.700   27.03   -1.71   -3.28   0.000   0.200   0.000    0.00
   7.750   26.78   -3.32   -3.07   0.000   0.200   0.000    0.00
   7.800   27.25   -3.67   -2.27   0.000   0.200   0.000    0.00
   7.850   28.33   -6.14   -2.73   0.000   0.200   0.000    0.00
   7.900   28.36   -3.33   -3.82   0.000   0.200   0.000    0.00
   7.950   29.05   -1.34   -3.83   0.000   0.200   0.000    0.00
   8.000   28.70   -3.34   -2.92   0.000   0.200   0.000    0.00
   8.050   28.81   -3.54   -2.36   0.000   0.200   0.000    0.00
   8.100   28.17   -3.75   -1.43   0.000   0.200   0.000    0.00
   8.150   28.69   -4.19   -1.46   0.000   0.200   0.000    0.00
   8.200   27.99   -4.85   -1.38   0.000   0.200   0.000    0.00
   8.250   28.38   -5.24   -2.54   0.000   0.200   0.000    0.00
   8.300   28.64   -4.04   -2.40   0.000   0.200   0.000    0.00
   8.350   27.42   -4.69   -1.98   0.000   0.200   0.000    0.00
   8.400   26.75   -2.67   -2.27   0.000   0.200   0.000    0.00
   8.450   27.78   -2.97   -2.70   0.000   0.200   0.000    0.00
   8.500   26.64   -5.90   -2.69   0.000   0.200   0.000    0.00
   8.550   25.60   -6.43   -2.90   0.000   0.200   0.000    0.00
   8.600   25.41   -5.92   -2.23   0.000   0.200   0.000    0.00
   8.650   26.10   -7.01   -1.99   0.000   0.200   0.000    0.00
   8.700   26.21   -5.18   -1.83   0.000   0.200   0.000    0.00
   8.750   26.14   -3.27   -1.54   0.000   0.200   0.000    0.00
   8.800   26.33   -4.41   -3.04   0.000   0.200   0.000    0.00
   8.850   26.13   -2.44   -3.78   0.000   0.200   0.000    0.00
   8.900   25.47   -2.48   -3.11   0.000   0.200   0.000    0.00
   8.950   24.37   -1.60   -3.70   0.000   0.200   0.000    0.00
   9.000   24.63   -2.34   -4.17   0.000   0.200   0.000    0.00
   9.050   24.44   -3.78   -3.85   0.000   0.200   0.000    0.00
   9.100   24.07   -3.47   -3.92   0.000   0.200   0.000    0.00
   9.150   24.46   -4.43   -2.94   0.000   0.200   0.000    0.00
   9.200   24.07   -3.62   -2.51   0.000   0.200   0.000    0.00
   9.250   23.67   -4.66   -1.75   0.000   0.200   0.000    0.00
   9.300   23.51   -4.80   -1.40   0.000   0.200   0.000    0.00
   9.350   22.49   -4.13   -1.03   0.000   0.200   0.000    0.00
   9.400   23.10   -2.30   -1.27   0.000   0.200   0.000    0.00
   9.450   23.27   -1.82   -1.13   0.000   0.200   0.000    0.00
   9.500   23.31   -5.24   -1.73   0.000   0.200   0.000    0.00
   9.550   23.40   -5.27   -1.50   0.000   0.200   0.000    0.00
   9.600   22.71   -5.89   -0.11   0.000   0.200   0.000    0.00
   9.650   23.04   -4.06    1.07   0.000   0.200   0.000    0.00
   9.700   22.44   -2.47    0.37   0.000   0.200   0.000    0.00
   9.750   22.64   -4.05    0.93   0.000   0.200   0.000    0.00
   9.800   22.85   -3.14    1.59   0.000   0.200   0.000    0.00
   9.850   23.80   -1.83    1.82   0.000   0.200   0.000    0.00
   9.900   23.96   -3.73    1.90   0.000   0.200   0.000    0.00
   9.950   23.10   -6.01    2.39   0.000   0.200   0.000    0.00
  10.000   22.44   -4.29    3.08   0.000   0.200   0.000    0.00
  10.050   22.64   -5.92    2.97   0.000   0.200   0.000    0.00
  10.100   22.54   -7.41    3.59   0.000   0.200   0.000    0.00
  10.150   24.02   -3.59    2.75   0.000   0.200   0.000    0.00
  10.200   24.49   -6.97    2.83   0.000   0.200   0.000    0.00
  10.250   24.52   -4.41    2.15   0.000   0.200   0.000    0.00
  10.300   24.16   -5.81    0.95   0.000   0.200   0.000    0.00
  10.350   24.11   -6.62    0.43   0.000   0.200   0.000    0.00
  10.400   24.06   -4.44    0.61   0.000   0.200   0.000    0.00
  10.450   24.17   -5.41    0.60   0.000   0.200   0.000    0.00
  10.500   23.99   -7.30   -0.47   0.000   0.200   0.000    0.00
  10.550   23.38   -8.54   -0.57   0.000   0.200   0.000    0.00
  10.600   23.95   -8.09   -1.73   0.000   0.200   0.000    0.00
  10.650   23.92   -9.47   -1.02   0.000   0.200   0.000    0.00
  10.700   23.38   -8.19   -0.83   0.000   0.200   0.000    0.00
  10.750   23.24   -8.14   -1.74   0.000   0.200   0.000    0.00
  10.800   23.14   -4.98   -1.21   0.000   0.200   0.000    0.00
  10.850   21.76   -4.81   -0.50   0.000   0.200   0.000    0.00
  10.900   21.68   -5.24   -0.09   0.000   0.200   0.000    0.00
  10.950   22.22   -5.05   -0.57   0.000   0.200   0.000    0.00
  11.000   22.17   -4.76   -0.14   0.000   0.200   0.000    0.00
  11.050   21.19   -4.99   -1.16   0.000   0.200   0.000    0.00
  11.100   21.62   -5.02   -1.16   0.000   0.200   0.000    0.00
  11.150   20.60   -3.62   -0.59   0.000   0.200   0.000    0.00
  11.200   20.08   -5.20    0.18   0.000   0.200   0.000    0.00
  11.250   20.68   -6.46    1.17   0.000   0.200   0.000    0.00
  11.300   20.68   -9.31    1.97   0.000   0.200   0.000    0.00
  11.350   21.35   -7.92    3.08   0.000   0.200   0.000    0.00
  11.400   21.16   -8.41    1.97   0.000   0.200   0.000    0.00
  11.450   21.12   -7.73    2.05   0.000   0.200   0.000    0.00
  11.500   21.26   -6.34    2.40   0.000   0.200   0.000    0.00
  11.550   21.59   -5.70    1.73   0.000   0.200   0.000    0.00
  11.600   20.83   -4.12    2.36   0.000   0.200   0.000    0.00
  11.650   20.75   -3.30    1.67   0.000   0.200   0.000    0.00
  11.700   21.26   -2.10    1.07   0.000   0.200   0.000    0.00
  11.750   21.76   -2.44    1.40   0.000   0.200   0.000    0.00
  11.800   22.78   -2.56    2.39   0.000   0.200   0.000    0.00
  11.850   21.73   -1.15    1.90   0.000   0.200   0.000    0.00
  11.900   21.32   -0.69    1.82   0.000   0.200   0.000    0.00
  11.950   22.19   -2.29    1.66   0.000   0.200   0.000    0.00
  12.000   21.31   -3.12    1.42   0.000   0.200   0.000    0.00
  12.050   22.13   -3.13    0.31   0.000   0.200   0.000    0.00
  12.100   22.24   -6.90    0.74   0.000   0.200   0.000    0.00
  12.150   23.00   -4.29   -0.18   0.000   0.200   0.000    0.00
  12.200   22.37   -4.17    0.16   0.000   0.200   0.000    0.00
  12.250   22.35    0.54    0.48   0.000   0.200   0.000    0.00
  12.300   22.29   -3.05   -0.33   0.000   0.200   0.000    0.00
  12.350   22.27   -3.22    0.77   0.000   0.200   0.000    0.00
  12.400   22.31   -4.28    0.73   0.000   0.200   0.000    0.00
  12.450   22.44   -4.83    1.60   0.000   0.200   0.000    0.00
  12.500   22.42   -5.95    1.12   0.000   0.200   0.000    0.00
  12.550   23.24   -3.91    1.60   0.000   0.200   0.000    0.00
  12.600   23.56   -4.69    1.03   0.000   0.200   0.000    0.00
  12.650   23.93   -4.26    1.02   0.000   0.200   0.000    0.00
  12.700   23.77   -4.27    0.85   0.000   0.200   0.000    0.00
  12.750   23.83   -5.43    1.87   0.000   0.200   0.000    0.00
  12.800   22.60   -4.97    1.41   0.000   0.200   0.000    0.00
  12.850   22.97   -3.83    1.53   0.000   0.200   0.000    0.00
  12.900   22.63   -3.55    1.06   0.000   0.200   0.000    0.00
  12.950   22.86   -1.59   -0.01   0.000   0.200   0.000    0.00
  13.000   22.48    0.29    1.40   0.000   0.200   0.000    0.00
  13.050   23.32   -2.95    0.89   0.000   0.200   0.000    0.00
  13.100   24.17   -6.24    0.44   0.000   0.200   0.000    0.00
  13.150   24.43   -4.34   -0.22   0.000   0.200   0.000    0.00
  13.200   24.23   -5.39   -0.01   0.000   0.200   0.000    0.00
  13.250   25.06   -6.29   -0.32   0.000   0.200   0.000    0.00
  13.300   25.33   -5.91    0.07   0.000   0.200   0.000    0.00
  13.350   25.16   -5.80    0.20   0.000   0.200   0.000    0.00
  13.400   25.15   -4.40   -1.87   0.000   0.200   0.000    0.00
  13.450   25.46   -4.94   -2.48   0.000   0.200   0.000    0.00
  13.500   24.33   -3.72   -1.93   0.000   0.200   0.000    0.00
  13.550   23.53   -5.77   -0.90   0.000   0.200   0.000    0.00
  13.600   23.89   -5.17   -0.03   0.000   0.200   0.000    0.00
  13.650   23.58   -8.20   -0.33   0.000   0.200   0.000    0.00
  13.700   23.49   -6.16   -0.76   0.000   0.200   0.000    0.00
  13.750   23.93   -6.41   -0.13   0.000   0.200   0.000    0.00
  13.800   24.26   -3.88    0.92   0.000   0.200   0.000    0.00
  13.850   24.58   -5.84   -0.57   0.000   0.200   0.000    0.00
  13.900   23.81   -9.10    0.93   0.000   0.200   0.000    0.00
  13.950   23.61   -8.01    1.99   0.000   0.200   0.000    0.00
  14.000   23.33  -10.82    0.96   0.000   0.200   0.000    0.00
  14.050   22.75   -9.19    0.18   0.000   0.200   0.000    0.00
  14.100   21.84   -6.05    0.09   0.000   0.200   0.000    0.00
  14.150   21.89   -6.75    0.05   0.000   0.200   0.000    0.00
  14.200   22.35   -2.18   -0.17   0.000   0.200   0.000    0.00
  14.250   22.22   -0.90    0.53   0.000   0.200   0.000    0.00
  14.300   23.50   -0.76    0.18   0.000   0.200   0.000    0.00
  14.350   23.56   -3.21    0.18   0.000   0.200   0.000    0.00
  14.400   23.01   -0.93   -0.58   0.000   0.200   0.000    0.00
  14.450   23.35   -3.84   -1.04   0.000   0.200   0.000    0.00
  14.500   24.46   -4.69   -0.43   0.000   0.200   0.000    0.00
  14.550   24.11   -4.52   -0.66   0.000   0.200   0.000    0.00
  14.600   23.38   -5.61   -0.26   0.000   0.200   0.000    0.00
  14.650   23.63   -6.20   -0.80   0.000   0.200   0.000    0.00
  14.700   24.11   -5.17   -0.72   0.000   0.200   0.000    0.00
  14.750   24.65   -6.32   -0.65   0.000   0.200   0.000    0.00
  14.800   23.89   -7.69   -0.99   0.000   0.200   0.000    0.00
  14.850   23.49   -5.29    0.53   0.000   0.200   0.000    0.00
  14.900   22.96   -5.46    1.22   0.000   0.200   0.000    0.00
  14.950   23.58   -5.34    0.12   0.000   0.200   0.000    0.00
  15.000   23.54   -5.58   -0.16   0.000   0.200   0.000    0.00
  15.050   23.61   -7.13    0.25   0.000   0.200   0.000    0.00
  15.100   24.37   -6.87   -1.27   0.000   0.200   0.000    0.00
  15.150   24.55   -2.55   -0.52   0.000   0.200   0.000    0.00
  15.200   24.79   -4.00   -0.03   0.000   0.200   0.000    0.00
  15.250   24.70   -3.68   -0.83   0.000   0.200   0.000    0.00
  15.300   24.83   -6.16   -0.97   0.000   0.200   0.000    0.00
  15.350   24.95   -7.23   -0.94   0.000   0.200   0.000    0.00
  15.400   25.78   -5.89    0.06   0.000   0.200   0.000    0.00
  15.450   25.39   -7.94   -0.05   0.000   0.200   0.000    0.00
  15.500   24.26   -6.17   -1.41   0.000   0.200   0.000    0.00
  15.550   25.69   -7.46   -1.09   0.000   0.200   0.000    0.00
  15.600   26.26   -5.97    0.12   0.000   0.200   0.000    0.00
  15.650   25.72   -6.87   -0.36   0.000   0.200   0.000    0.00
  15.700   25.61   -5.82   -0.89   0.000   0.200   0.000    0.00
  15.750   24.96   -9.84   -0.34   0.000   0.200   0.000    0.00
  15.800   24.51   -8.32   -0.63   0.000   0.200   0.000    0.00
  15.850   24.50   -7.06   -1.51   0.000   0.200   0.000    0.00
  15.900   24.69   -8.47   -1.01   0.000   0.200   0.000    0.00
  15.950   24.92  -11.51   -1.23   0.000   0.200   0.000    0.00
  16.000   24.70  -11.21   -0.86   0.000   0.200   0.000    0.00
  16.050   24.35  -10.14   -0.62   0.000   0.200   0.000    0.00
  16.100   22.84   -7.73   -0.04   0.000   0.200   0.000    0.00
  16.150   23.03   -6.70   -0.62   0.000   0.200   0.000    0.00
  16.200   23.22   -6.41   -0.63   0.000   0.200   0.000    0.00
  16.250   24.27   -4.59   -1.91   0.000   0.200   0.000    0.00
  16.300   24.87   -5.23   -1.22   0.000   0.200   0.000    0.00
  16.350   23.90   -5.81   -1.28   0.000   0.200   0.000    0.00
  16.400   23.50   -7.32   -0.49   0.000   0.200   0.000    0.00
  16.450   23.54   -6.78    0.21   0.000   0.200   0.000    0.00
  16.500   23.69   -3.35   -0.10   0.000   0.200   0.000    0.00
  16.550   23.24   -3.43    1.49   0.000   0.200   0.000    0.00
  16.600   24.57   -6.34    1.53   0.000   0.200   0.000    0.00
  16.650   24.76   -8.50    0.81   0.000   0.200   0.000    0.00
  16.700   25.19   -8.03    1.44   0.000   0.200   0.000    0.00
  16.750   24.84   -7.24    1.43   0.000   0.200   0.000    0.00
  16.800   25.27   -5.19    1.88   0.000   0.200   0.000    0.00
  16.850   25.03   -4.65    0.65   0.000   0.200   0.000    0.00
  16.900   25.26   -6.08   -0.14   0.000   0.200   0.000    0.00
  16.950   25.50   -7.05   -0.12   0.000   0.200   0.000    0.00
  17.000   24.70   -7.24    1.28   0.000   0.200   0.000    0.00
  17.050   24.21   -5.73    1.28   0.000   0.200   0.000    0.00
  17.100   24.25   -6.30    0.54   0.000   0.200   0.000    0.00
  17.150   24.35   -6.60    1.48   0.000   0.200   0.000    0.00
  17.200   24.88   -6.56    1.23   0.000   0.200   0.000    0.00
  17.250   24.14   -5.09    1.71   0.000   0.200   0.000    0.00
  17.300   24.65   -3.86    1.24   0.000   0.200   0.000    0.00
  17.350   24.97   -4.15    1.38   0.000   0.200   0.000    0.00
  17.400   25.74   -3.96    1.00   0.000   0.200   0.000    0.00
  17.450   25.96   -3.64    0.29   0.000   0.200   0.000    0.00
  17.500   24.38   -4.39    0.19   0.000   0.200   0.000    0.00
  17.550   24.62   -3.34   -0.27   0.000   0.200   0.000    0.00
  17.600   24.52   -2.38    0.09   0.000   0.200   0.000    0.00
  17.650   24.37   -2.16   -0.65   0.000   0.200   0.000    0.00
  17.700   23.48   -3.11   -2.36   0.000   0.200   0.000    0.00
  17.750   23.49   -3.24   -2.06   0.000   0.200   0.000    0.00
  17.800   23.65   -3.21   -1.55   0.000   0.200   0.000    0.00
  17.850   23.62   -6.74   -0.23   0.000   0.200   0.000    0.00
  17.900   23.70   -4.95    0.75   0.000   0.200   0.000    0.00
  17.950   25.00   -4.14    1.79   0.000   0.200   0.000    0.00
  18.000   24.08   -4.86    1.78   0.000   0.200   0.000    0.00
  18.050   23.38   -8.63    2.33   0.000   0.200   0.000    0.00
  18.100   23.48   -9.73    2.28   0.000   0.200   0.000    0.00
  18.150   23.01   -9.25    2.86   0.000   0.200   0.000    0.00
  18.200   23.68   -8.67    2.24   0.000   0.200   0.000    0.00
  18.250   25.60   -8.84    1.42   0.000   0.200   0.000    0.00
  18.300   25.66   -9.05    2.44   0.000   0.200   0.000    0.00
  18.350   26.06  -10.20    3.30   0.000   0.200   0.000    0.00
  18.400   25.91  -13.97    3.35   0.000   0.200   0.000    0.00
  18.450   25.91  -11.41    4.22   0.000   0.200   0.000    0.00
  18.500   26.79  -10.08    3.26   0.000   0.200   0.000    0.00
  18.550   25.71  -11.07    2.79   0.000   0.200   0.000    0.00
  18.600   26.63  -10.03    3.38   0.000   0.200   0.000    0.00
  18.650   26.73   -9.92    4.18   0.000   0.200   0.000    0.00
  18.700   26.37  -11.12    2.33   0.000   0.200   0.000    0.00
  18.750   26.79   -8.95    1.96   0.000   0.200   0.000    0.00
  18.800   26.00   -9.78    1.99   0.000   0.200   0.000    0.00
  18.850   25.39   -8.02    1.12   0.000   0.200   0.000    0.00
  18.900   24.41  -10.90    2.33   0.000   0.200   0.000    0.00
  18.950   23.83   -8.58    2.31   0.000   0.200   0.000    0.00
  19.000   23.81   -4.94    1.98   0.000   0.200   0.000    0.00
  19.050   24.56   -7.06    1.24   0.000   0.200   0.000    0.00
  19.100   24.61   -4.51    0.39   0.000   0.200   0.000    0.00
  19.150   24.98   -4.67    0.60   0.000   0.200   0.000    0.00
  19.200   25.70   -4.61    1.17   0.000   0.200   0.000    0.00
  19.250   26.36   -4.10    1.21   0.000   0.200   0.000    0.00
  19.300   25.22   -5.26    0.56   0.000   0.200   0.000    0.00
  19.350   25.24   -6.57   -0.60   0.000   0.200   0.000    0.00
  19.400   24.96   -5.26    0.92   0.000   0.200   0.000    0.00
  19.450   25.25   -6.24    1.27   0.000   0.200   0.000    0.00
  19.500   25.99   -5.71    1.75   0.000   0.200   0.000    0.00
  19.550   25.79   -4.18    2.59   0.000   0.200   0.000    0.00
  19.600   26.83   -4.83    2.05   0.000   0.200   0.000    0.00
  19.650   26.81   -5.46    2.04   0.000   0.200   0.000    0.00
  19.700   26.38   -2.25    2.18   0.000   0.200   0.000    0.00
  19.750   26.43   -2.63    2.27   0.000   0.200   0.000    0.00
  19.800   27.87   -4.50    1.41   0.000   0.200   0.000    0.00
  19.850   27.29   -4.39    1.58   0.000   0.200   0.000    0.00
  19.900   27.45   -5.69    0.45   0.000   0.200   0.000    0.00
  19.950   27.24   -5.25    0.04   0.000   0.200   0.000    0.00
  20.000   27.74   -6.66    0.42   0.000   0.200   0.000    0.00
  20.050   26.90   -6.73   -0.31   0.000   0.200   0.000    0.00
  20.100   26.99   -4.82    0.04   0.000   0.200   0.000    0.00
  20.150   26.44   -5.48    0.83   0.000   0.200   0.000    0.00
  20.200   26.35   -4.94    1.79   0.000   0.200   0.000    0.00
  20.250   26.69   -6.61    0.06   0.000   0.200   0.000    0.00
  20.300   27.66   -5.29    0.75   0.000   0.200   0.000    0.00
  20.350   28.19   -6.06    1.50   0.000   0.200   0.000    0.00
  20.400   28.25   -6.03    1.52   0.000   0.200   0.000    0.00
  20.450   27.54   -3.98    2.91   0.000   0.200   0.000    0.00
  20.500   27.92   -3.54    2.56   0.000   0.200   0.000    0.00
  20.550   28.81   -6.19    2.07   0.000   0.200   0.000    0.00
  20.600   29.28   -7.63    2.69   0.000   0.200   0.000    0.00
  20.650   28.85   -8.40    2.43   0.000   0.200   0.000    0.00
  20.700   28.98   -7.33    2.11   0.000   0.200   0.000    0.00
  20.750   29.18   -5.90    2.87   0.000   0.200   0.000    0.00
  20.800   29.19   -7.06    2.46   0.000   0.200   0.000    0.00
  20.850   28.65   -6.41    1.55   0.000   0.200   0.000    0.00
  20.900   29.09   -6.04    1.26   0.000   0.200   0.000    0.00
  20.950   29.59   -6.69    0.73   0.000   0.200   0.000    0.00
  21.000   28.32   -5.08    0.77   0.000   0.200   0.000    0.00
  21.050   27.24   -5.30   -0.21   0.000   0.200   0.000    0.00
  21.100   26.80   -5.85   -0.07   0.000   0.200   0.000    0.00
  21.150   27.32   -7.30   -1.57   0.000   0.200   0.000    0.00
  21.200   26.84   -8.30   -1.02   0.000   0.200   0.000    0.00
  21.250   27.24   -8.61   -0.80   0.000   0.200   0.000    0.00
  21.300   27.99  -10.12   -0.63   0.000   0.200   0.000    0.00
  21.350   28.45  -10.78   -0.07   0.000   0.200   0.000    0.00
  21.400   27.92   -9.25    0.06   0.000   0.200   0.000    0.00
  21.450   27.85  -11.69    0.38   0.000   0.200   0.000    0.00
  21.500   27.25  -13.46    1.03   0.000   0.200   0.000    0.00
  21.550   26.98  -10.98    0.60   0.000   0.200   0.000    0.00
  21.600   27.75  -11.31    0.50   0.000   0.200   0.000    0.00
  21.650   28.64  -12.24    1.03   0.000   0.200   0.000    0.00
  21.700   28.64  -11.70    0.25   0.000   0.200   0.000    0.00
  21.750   27.78  -10.81   -0.03   0.000   0.200   0.000    0.00
  21.800   27.83  -10.55    0.29   0.000   0.200   0.000    0.00
  21.850   28.79   -9.34    0.61   0.000   0.200   0.000    0.00
  21.900   30.44   -8.88   -0.71   0.000   0.200   0.000    0.00
  21.950   29.64   -9.43   -1.00   0.000   0.200   0.000    0.00
  22.000   28.77   -9.13   -1.52   0.000   0.200   0.000    0.00
  22.050   27.70   -9.25   -1.61   0.000   0.200   0.000    0.00
  22.100   27.26   -9.28   -0.85   0.000   0.200   0.000    0.00
  22.150   26.48  -11.74   -0.72   0.000   0.200   0.000    0.00
  22.200   27.05  -10.82   -0.59   0.000   0.200   0.000    0.00
  22.250   25.72   -9.07   -1.51   0.000   0.200   0.000    0.00
  22.300   25.31  -10.45   -0.97   0.000   0.200   0.000    0.00
  22.350   25.51  -10.39   -0.32   0.000   0.200   0.000    0.00