! This hub-height wind-speed file was generated by TurbSim (v1.06.00, 21-Sep-2012) on 03-Feb-2018 at 23:33:33.
!
! The requested statistics for this data were:
!    Mean Total Wind Speed =   23.000 m/s
!    Turbulence Intensity  =   17.433%
!
!   Time  HorSpd  WndDir  VerSpd  HorShr  VerShr  LnVShr  GstSpd
!  (sec)   (m/s)   (deg)   (m/s)     (-)     (-)     (-)   (m/s)
   0.000   26.23  -15.50    0.20   0.000   0.200   0.000    0.00
   0.050   26.50  -17.07   -0.05   0.000   0.200   0.000    0.00
   0.100   28.03  -17.55   -0.42   0.000   0.200   0.000    0.00
   0.150   28.09  -15.14   -0.16   0.000   0.200   0.000    0.00
   0.200   27.89  -14.11    0.41   0.000   0.200   0.000    0.00
   0.250   28.26  -16.17    0.68   0.000   0.200   0.000    0.00
   0.300   27.61  -15.91   -0.53   0.000   0.200   0.000    0.00
   0.350   27.79  -16.40    0.46   0.000   0.200   0.000    0.00
   0.400   28.19  -12.92   -0.45   0.000   0.200   0.000    0.00
   0.450   29.51  -10.50    0.47   0.000   0.200   0.000    0.00
   0.500   29.30  -11.15    2.18   0.000   0.200   0.000    0.00
   0.550   28.65   -9.17    2.59   0.000   0.200   0.000    0.00
   0.600   28.17  -12.13    1.86   0.000   0.200   0.000    0.00
   0.650   29.11  -11.72    0.27   0.000   0.200   0.000    0.00
   0.700   28.18   -8.87   -0.13   0.000   0.200   0.000    0.00
   0.750   27.40   -9.23    0.22   0.000   0.200   0.000    0.00
   0.800   26.39   -7.48   -1.06   0.000   0.200   0.000    0.00
   0.850   25.92   -5.77   -1.67   0.000   0.200   0.000    0.00
   0.900   25.92   -5.69   -2.13   0.000   0.200   0.000    0.00
   0.950   26.13   -7.59   -1.78   0.000   0.200   0.000    0.00
   1.000   26.75   -5.14   -1.29   0.000   0.200   0.000    0.00
   1.050   25.28   -6.51   -1.93   0.000   0.200   0.000    0.00
   1.100   25.32   -5.41   -2.18   0.000   0.200   0.000    0.00
   1.150   23.38   -6.31   -2.25   0.000   0.200   0.000    0.00
   1.200   22.98   -7.34   -1.28   0.000   0.200   0.000    0.00
   1.250   23.28   -6.72   -0.19   0.000   0.200   0.000    0.00
   1.300   23.65   -8.68   -0.90   0.000   0.200   0.000    0.00
   1.350   24.66   -8.72   -0.02   0.000   0.200   0.000    0.00
   1.400   24.90   -7.95    0.13   0.000   0.200   0.000    0.00
   1.450   24.45   -9.00   -1.14   0.000   0.200   0.000    0.00
   1.500   23.68  -10.75   -0.90   0.000   0.200   0.000    0.00
   1.550   24.10  -10.81    0.61   0.000   0.200   0.000    0.00
   1.600   23.48  -11.61    0.85   0.000   0.200   0.000    0.00
   1.650   23.87   -8.85    1.71   0.000   0.200   0.000    0.00
   1.700   22.89   -9.24    1.97   0.000   0.200   0.000    0.00
   1.750   22.10  -10.72    1.88   0.000   0.200   0.000    0.00
   1.800   21.81  -13.69    2.70   0.000   0.200   0.000    0.00
   1.850   21.92  -15.28    2.70   0.000   0.200   0.000    0.00
   1.900   22.17  -15.13    1.26   0.000   0.200   0.000    0.00
   1.950   23.34  -15.40    1.45   0.000   0.200   0.000    0.00
   2.000   23.24  -14.46   -0.17   0.000   0.200   0.000    0.00
   2.050   22.41  -11.75   -0.21   0.000   0.200   0.000    0.00
   2.100   23.19  -11.55    0.27   0.000   0.200   0.000    0.00
   2.150   24.39  -13.39   -0.32   0.000   0.200   0.000    0.00
   2.200   23.83  -10.13   -0.86   0.000   0.200   0.000    0.00
   2.250   23.04  -10.75   -2.71   0.000   0.200   0.000    0.00
   2.300   23.00  -14.66   -2.83   0.000   0.200   0.000    0.00
   2.350   22.87  -13.97   -1.90   0.000   0.200   0.000    0.00
   2.400   22.23  -12.05   -2.02   0.000   0.200   0.000    0.00
   2.450   22.65  -11.72   -3.23   0.000   0.200   0.000    0.00
   2.500   21.55   -8.14   -3.94   0.000   0.200   0.000    0.00
   2.550   21.95  -12.73   -4.61   0.000   0.200   0.000    0.00
   2.600   22.48  -11.75   -3.60   0.000   0.200   0.000    0.00
   2.650   21.46  -12.89   -2.83   0.000   0.200   0.000    0.00
   2.700   22.72   -9.76   -0.38   0.000   0.200   0.000    0.00
   2.750   22.94   -5.32   -0.34   0.000   0.200   0.000    0.00
   2.800   23.52   -2.60   -1.10   0.000   0.200   0.000    0.00
   2.850   24.05   -5.60   -0.84   0.000   0.200   0.000    0.00
   2.900   25.04   -4.80   -1.59   0.000   0.200   0.000    0.00
   2.950   25.29   -6.23    0.17   0.000   0.200   0.000    0.00
   3.000   26.06   -7.51   -1.43   0.000   0.200   0.000    0.00
   3.050   25.54   -5.23   -1.56   0.000   0.200   0.000    0.00
   3.100   25.82   -3.10    0.11   0.000   0.200   0.000    0.00
   3.150   25.46   -5.62   -0.10   0.000   0.200   0.000    0.00
   3.200   25.88   -5.75    0.41   0.000   0.200   0.000    0.00
   3.250   25.75   -2.26    0.78   0.000   0.200   0.000    0.00
   3.300   24.69   -2.42   -0.24   0.000   0.200   0.000    0.00
   3.350   24.49   -4.36    1.98   0.000   0.200   0.000    0.00
   3.400   25.55   -5.75    1.35   0.000   0.200   0.000    0.00
   3.450   25.95   -4.26   -0.20   0.000   0.200   0.000    0.00
   3.500   26.07   -4.14    0.86   0.000   0.200   0.000    0.00
   3.550   25.55   -5.26    0.37   0.000   0.200   0.000    0.00
   3.600   25.32   -6.08    1.08   0.000   0.200   0.000    0.00
   3.650   24.91   -8.53    1.85   0.000   0.200   0.000    0.00
   3.700   23.19   -8.63    0.56   0.000   0.200   0.000    0.00
   3.750   24.64   -9.75    1.55   0.000   0.200   0.000    0.00
   3.800   26.22   -9.89    1.16   0.000   0.200   0.000    0.00
   3.850   26.17   -7.57    0.49   0.000   0.200   0.000    0.00
   3.900   26.32   -8.48    0.20   0.000   0.200   0.000    0.00
   3.950   27.24   -8.95    0.86   0.000   0.200   0.000    0.00
   4.000   26.17   -9.72    0.53   0.000   0.200   0.000    0.00
   4.050   25.08  -10.07    1.22   0.000   0.200   0.000    0.00
   4.100   26.28  -14.50    3.78   0.000   0.200   0.000    0.00
   4.150   26.92  -18.22    3.11   0.000   0.200   0.000    0.00
   4.200   27.51  -19.70    2.17   0.000   0.200   0.000    0.00
   4.250   28.42  -19.71    2.59   0.000   0.200   0.000    0.00
   4.300   29.64  -20.22    1.87   0.000   0.200   0.000    0.00
   4.350   30.72  -17.83    1.97   0.000   0.200   0.000    0.00
   4.400   30.26  -17.83    2.60   0.000   0.200   0.000    0.00
   4.450   28.74  -17.53    2.32   0.000   0.200   0.000    0.00
   4.500   28.49  -13.57    2.34   0.000   0.200   0.000    0.00
   4.550   28.12  -10.27    1.70   0.000   0.200   0.000    0.00
   4.600   27.95   -9.23   -0.27   0.000   0.200   0.000    0.00
   4.650   29.80  -10.89   -0.94   0.000   0.200   0.000    0.00
   4.700   29.85  -11.96   -0.06   0.000   0.200   0.000    0.00
   4.750   29.72  -13.01   -0.23   0.000   0.200   0.000    0.00
   4.800   28.59  -11.12   -0.68   0.000   0.200   0.000    0.00
   4.850   27.55   -8.16    0.67   0.000   0.200   0.000    0.00
   4.900   28.71  -11.17    1.17   0.000   0.200   0.000    0.00
   4.950   28.48  -12.83    0.55   0.000   0.200   0.000    0.00
   5.000   27.11   -9.83    1.45   0.000   0.200   0.000    0.00
   5.050   26.77  -10.83    1.82   0.000   0.200   0.000    0.00
   5.100   27.34  -10.47    1.65   0.000   0.200   0.000    0.00
   5.150   28.04   -9.39    1.97   0.000   0.200   0.000    0.00
   5.200   28.14  -10.90    1.66   0.000   0.200   0.000    0.00
   5.250   30.15  -10.89    2.15   0.000   0.200   0.000    0.00
   5.300   30.44  -10.18    0.36   0.000   0.200   0.000    0.00
   5.350   28.62  -11.76    1.51   0.000   0.200   0.000    0.00
   5.400   28.46  -11.55    0.35   0.000   0.200   0.000    0.00
   5.450   28.73  -11.30    1.75   0.000   0.200   0.000    0.00
   5.500   28.06  -12.30    1.67   0.000   0.200   0.000    0.00
   5.550   27.11  -11.28    1.59   0.000   0.200   0.000    0.00
   5.600   27.01  -10.82    2.75   0.000   0.200   0.000    0.00
   5.650   26.29  -14.39    2.37   0.000   0.200   0.000    0.00
   5.700   25.23  -15.91    2.66   0.000   0.200   0.000    0.00
   5.750   24.97  -17.21    2.96   0.000   0.200   0.000    0.00
   5.800   25.84  -17.76    2.25   0.000   0.200   0.000    0.00
   5.850   26.41  -19.47    1.77   0.000   0.200   0.000    0.00
   5.900   25.57  -17.80    3.23   0.000   0.200   0.000    0.00
   5.950   25.80  -18.62    2.91   0.000   0.200   0.000    0.00
   6.000   26.22  -16.73    1.92   0.000   0.200   0.000    0.00
   6.050   25.85  -17.09    3.43   0.000   0.200   0.000    0.00
   6.100   26.41  -15.21    0.72   0.000   0.200   0.000    0.00
   6.150   26.80  -17.28    0.52   0.000   0.200   0.000    0.00
   6.200   26.62  -16.02    1.14   0.000   0.200   0.000    0.00
   6.250   26.73  -17.45    1.59   0.000   0.200   0.000    0.00
   6.300   25.61  -21.78    1.57   0.000   0.200   0.000    0.00
   6.350   25.14  -19.77    1.63   0.000   0.200   0.000    0.00
   6.400   26.38  -17.56    2.28   0.000   0.200   0.000    0.00
   6.450   26.58  -18.32    2.59   0.000   0.200   0.000    0.00
   6.500   27.11  -20.26    0.42   0.000   0.200   0.000    0.00
   6.550   26.63  -19.95   -0.60   0.000   0.200   0.000    0.00
   6.600   26.60  -18.69    0.46   0.000   0.200   0.000    0.00
   6.650   25.59  -13.62    0.25   0.000   0.200   0.000    0.00
   6.700   24.61   -9.66   -1.09   0.000   0.200   0.000    0.00
   6.750   25.78   -9.80   -2.42   0.000   0.200   0.000    0.00
   6.800   26.97   -7.56   -0.67   0.000   0.200   0.000    0.00
   6.850   28.48   -6.10   -1.41   0.000   0.200   0.000    0.00
   6.900   26.89   -6.75   -2.15   0.000   0.200   0.000    0.00
   6.950   26.67   -7.71   -2.22   0.000   0.200   0.000    0.00
   7.000   26.03   -9.61   -0.72   0.000   0.200   0.000    0.00
   7.050   25.57   -9.90   -1.12   0.000   0.200   0.000    0.00
   7.100   26.53   -8.77   -1.79   0.000   0.200   0.000    0.00
   7.150   26.15  -10.28   -0.89   0.000   0.200   0.000    0.00
   7.200   25.76   -7.64   -0.32   0.000   0.200   0.000    0.00
   7.250   25.95   -7.69   -0.80   0.000   0.200   0.000    0.00
   7.300   24.14   -4.98   -1.26   0.000   0.200   0.000    0.00
   7.350   23.41   -3.68   -1.76   0.000   0.200   0.000    0.00
   7.400   24.02   -3.68   -1.27   0.000   0.200   0.000    0.00
   7.450   25.43   -1.13   -1.00   0.000   0.200   0.000    0.00
   7.500   25.29   -5.40   -1.17   0.000   0.200   0.000    0.00
   7.550   25.25   -8.87   -1.96   0.000   0.200   0.000    0.00
   7.600   24.54   -7.51   -2.12   0.000   0.200   0.000    0.00
   7.650   24.04   -6.12   -0.52   0.000   0.200   0.000    0.00
   7.700   25.63   -9.99   -0.19   0.000   0.200   0.000    0.00
   7.750   24.90   -6.11    0.13   0.000   0.200   0.000    0.00
   7.800   24.57   -4.09    0.14   0.000   0.200   0.000    0.00
   7.850   24.91   -4.66    0.24   0.000   0.200   0.000    0.00
   7.900   24.84   -1.59   -0.09   0.000   0.200   0.000    0.00
   7.950   25.34    0.38    1.59   0.000   0.200   0.000    0.00
   8.000   25.18    2.60    2.05   0.000   0.200   0.000    0.00
   8.050   25.40    3.62    0.84   0.000   0.200   0.000    0.00
   8.100   24.50    0.20    0.42   0.000   0.200   0.000    0.00
   8.150   24.14    1.12    0.35   0.000   0.200   0.000    0.00
   8.200   24.72   -1.99    1.30   0.000   0.200   0.000    0.00
   8.250   25.36   -1.42   -1.26   0.000   0.200   0.000    0.00
   8.300   25.98    2.08   -1.64   0.000   0.200   0.000    0.00
   8.350   24.63    3.05   -1.08   0.000   0.200   0.000    0.00
   8.400   23.83    1.47   -1.01   0.000   0.200   0.000    0.00
   8.450   23.52   -0.60   -0.29   0.000   0.200   0.000    0.00
   8.500   23.69    0.49   -0.01   0.000   0.200   0.000    0.00
   8.550   23.47   -4.74    0.03   0.000   0.200   0.000    0.00
   8.600   25.28   -0.38    1.36   0.000   0.200   0.000    0.00
   8.650   27.20   -0.10    2.68   0.000   0.200   0.000    0.00
   8.700   28.02   -5.51    1.35   0.000   0.200   0.000    0.00
   8.750   29.18   -5.55    0.66   0.000   0.200   0.000    0.00
   8.800   29.25   -4.95    0.83   0.000   0.200   0.000    0.00
   8.850   29.03   -4.51    1.98   0.000   0.200   0.000    0.00
   8.900   28.41   -6.06    3.70   0.000   0.200   0.000    0.00
   8.950   27.55   -3.62    2.59   0.000   0.200   0.000    0.00
   9.000   27.81   -4.71    2.63   0.000   0.200   0.000    0.00
   9.050   27.35   -4.96    3.22   0.000   0.200   0.000    0.00
   9.100   27.19   -5.38    2.54   0.000   0.200   0.000    0.00
   9.150   28.44   -4.19    3.11   0.000   0.200   0.000    0.00
   9.200   27.88   -3.25    2.91   0.000   0.200   0.000    0.00
   9.250   27.28   -5.46    2.68   0.000   0.200   0.000    0.00
   9.300   27.98   -3.63    2.20   0.000   0.200   0.000    0.00
   9.350   27.43   -4.46    2.18   0.000   0.200   0.000    0.00
   9.400   27.25   -1.18    1.49   0.000   0.200   0.000    0.00
   9.450   27.47    0.26   -0.05   0.000   0.200   0.000    0.00
   9.500   27.39    2.30   -0.24   0.000   0.200   0.000    0.00
   9.550   27.64    3.26   -0.49   0.000   0.200   0.000    0.00
   9.600   26.73    2.40   -0.87   0.000   0.200   0.000    0.00
   9.650   26.65    1.31   -1.26   0.000   0.200   0.000    0.00
   9.700   27.61    2.27   -1.00   0.000   0.200   0.000    0.00
   9.750   27.33   -0.13    0.01   0.000   0.200   0.000    0.00
   9.800   27.23    2.13    0.69   0.000   0.200   0.000    0.00
   9.850   28.66    1.86   -0.38   0.000   0.200   0.000    0.00
   9.900   27.15    0.78   -0.99   0.000   0.200   0.000    0.00
   9.950   26.60    1.19   -0.58   0.000   0.200   0.000    0.00
  10.000   25.90    3.58   -2.13   0.000   0.200   0.000    0.00
  10.050   26.47    2.49   -2.18   0.000   0.200   0.000    0.00
  10.100   27.28   -0.07   -2.09   0.000   0.200   0.000    0.00
  10.150   27.90   -0.74   -3.07   0.000   0.200   0.000    0.00
  10.200   26.81   -3.59   -1.88   0.000   0.200   0.000    0.00
  10.250   26.22   -4.40   -1.40   0.000   0.200   0.000    0.00
  10.300   25.87   -4.88   -1.70   0.000   0.200   0.000    0.00
  10.350   25.89   -5.07   -1.15   0.000   0.200   0.000    0.00
  10.400   25.40   -1.37   -1.53   0.000   0.200   0.000    0.00
  10.450   25.20    0.88   -1.14   0.000   0.200   0.000    0.00
  10.500   25.63    1.01   -1.84   0.000   0.200   0.000    0.00
  10.550   25.20   -0.80   -0.87   0.000   0.200   0.000    0.00
  10.600   24.16    1.54   -1.77   0.000   0.200   0.000    0.00
  10.650   22.70    2.10   -1.03   0.000   0.200   0.000    0.00
  10.700   22.42   -1.12   -1.17   0.000   0.200   0.000    0.00
  10.750   22.62   -1.36   -1.29   0.000   0.200   0.000    0.00
  10.800   22.50   -5.58   -1.21   0.000   0.200   0.000    0.00
  10.850   22.26   -1.91   -1.03   0.000   0.200   0.000    0.00
  10.900   21.95    0.94   -1.19   0.000   0.200   0.000    0.00
  10.950   21.69   -1.64   -2.04   0.000   0.200   0.000    0.00
  11.000   22.08   -6.63   -1.32   0.000   0.200   0.000    0.00
  11.050   22.01   -4.13   -1.58   0.000   0.200   0.000    0.00
  11.100   20.35   -6.71    0.07   0.000   0.200   0.000    0.00
  11.150   20.53  -10.48    0.28   0.000   0.200   0.000    0.00
  11.200   20.38   -8.60   -2.40   0.000   0.200   0.000    0.00
  11.250   20.29   -7.19   -0.89   0.000   0.200   0.000    0.00
  11.300   20.69   -5.01    0.70   0.000   0.200   0.000    0.00
  11.350   21.63   -4.19   -0.33   0.000   0.200   0.000    0.00
  11.400   21.78   -0.62    0.45   0.000   0.200   0.000    0.00
  11.450   19.71   -3.28    0.20   0.000   0.200   0.000    0.00
  11.500   19.00   -2.93    0.71   0.000   0.200   0.000    0.00
  11.550   20.18   -3.56    0.87   0.000   0.200   0.000    0.00
  11.600   20.91   -6.60    1.23   0.000   0.200   0.000    0.00
  11.650   20.55   -5.04    1.01   0.000   0.200   0.000    0.00
  11.700   21.95   -3.03    1.26   0.000   0.200   0.000    0.00
  11.750   21.97    0.20    0.60   0.000   0.200   0.000    0.00
  11.800   21.23   -0.94   -0.75   0.000   0.200   0.000    0.00
  11.850   20.44    0.52   -1.44   0.000   0.200   0.000    0.00
  11.900   20.16    1.59    0.17   0.000   0.200   0.000    0.00
  11.950   18.48   -0.18    0.78   0.000   0.200   0.000    0.00
  12.000   19.84    2.09   -1.09   0.000   0.200   0.000    0.00
  12.050   20.43    0.54   -1.09   0.000   0.200   0.000    0.00
  12.100   20.77    0.51   -1.26   0.000   0.200   0.000    0.00
  12.150   20.18   -0.49   -1.43   0.000   0.200   0.000    0.00
  12.200   20.77   -3.39   -0.90   0.000   0.200   0.000    0.00
  12.250   21.04    0.79   -0.94   0.000   0.200   0.000    0.00
  12.300   23.36   -1.53   -1.49   0.000   0.200   0.000    0.00
  12.350   23.50   -2.95   -1.99   0.000   0.200   0.000    0.00
  12.400   23.45   -0.12   -1.96   0.000   0.200   0.000    0.00
  12.450   23.40    0.01   -1.66   0.000   0.200   0.000    0.00
  12.500   23.62    1.42   -0.53   0.000   0.200   0.000    0.00
  12.550   22.90    1.81    0.48   0.000   0.200   0.000    0.00
  12.600   21.55   -1.42    2.32   0.000   0.200   0.000    0.00
  12.650   21.54   -5.37    2.13   0.000   0.200   0.000    0.00
  12.700   20.87   -6.42    1.86   0.000   0.200   0.000    0.00
  12.750   21.33   -4.61    1.36   0.000   0.200   0.000    0.00
  12.800   20.61   -5.94    2.67   0.000   0.200   0.000    0.00
  12.850   20.62   -5.29    3.12   0.000   0.200   0.000    0.00
  12.900   19.36   -8.10    2.95   0.000   0.200   0.000    0.00
  12.950   19.82  -10.13    2.29   0.000   0.200   0.000    0.00
  13.000   21.43   -8.69    1.33   0.000   0.200   0.000    0.00
  13.050   22.75   -9.02    0.82   0.000   0.200   0.000    0.00
  13.100   22.63   -6.30   -1.17   0.000   0.200   0.000    0.00
  13.150   21.96   -4.84   -0.16   0.000   0.200   0.000    0.00
  13.200   20.41   -3.55    1.32   0.000   0.200   0.000    0.00
  13.250   21.36   -2.84    2.99   0.000   0.200   0.000    0.00
  13.300   23.14   -3.64    1.72   0.000   0.200   0.000    0.00
  13.350   22.87   -1.73    1.39   0.000   0.200   0.000    0.00
  13.400   23.69    2.00    2.21   0.000   0.200   0.000    0.00
  13.450   23.87    1.53    2.15   0.000   0.200   0.000    0.00
  13.500   22.98   -0.70    2.60   0.000   0.200   0.000    0.00
  13.550   21.13   -0.93    0.61   0.000   0.200   0.000    0.00
  13.600   22.06   -4.25   -0.23   0.000   0.200   0.000    0.00
  13.650   21.84   -6.26    0.58   0.000   0.200   0.000    0.00
  13.700   21.07  -10.23    0.64   0.000   0.200   0.000    0.00
  13.750   21.16  -12.94    1.03   0.000   0.200   0.000    0.00
  13.800   20.71   -8.19   -0.79   0.000   0.200   0.000    0.00
  13.850   20.00   -8.21   -0.38   0.000   0.200   0.000    0.00
  13.900   19.58   -9.28   -0.10   0.000   0.200   0.000    0.00
  13.950   20.16  -10.82   -0.70   0.000   0.200   0.000    0.00
  14.000   20.81  -10.76   -0.29   0.000   0.200   0.000    0.00
  14.050   20.83  -10.82   -1.11   0.000   0.200   0.000    0.00
  14.100   19.92   -6.03   -1.34   0.000   0.200   0.000    0.00
  14.150   20.22   -3.21   -1.43   0.000   0.200   0.000    0.00
  14.200   20.26   -2.71    0.44   0.000   0.200   0.000    0.00
  14.250   19.90    0.40   -0.13   0.000   0.200   0.000    0.00
  14.300   20.99    2.10    0.77   0.000   0.200   0.000    0.00
  14.350   22.00    1.07    0.15   0.000   0.200   0.000    0.00
  14.400   22.24   -0.79   -0.43   0.000   0.200   0.000    0.00
  14.450   22.76    3.62    0.73   0.000   0.200   0.000    0.00
  14.500   22.15    6.98    1.06   0.000   0.200   0.000    0.00
  14.550   22.65    7.28    0.24   0.000   0.200   0.000    0.00
  14.600   22.74    5.14    0.66   0.000   0.200   0.000    0.00
  14.650   22.56    6.00    0.26   0.000   0.200   0.000    0.00
  14.700   22.85    1.37    0.86   0.000   0.200   0.000    0.00
  14.750   22.76    1.90    0.64   0.000   0.200   0.000    0.00
  14.800   22.84   -0.93    0.22   0.000   0.200   0.000    0.00
  14.850   23.73   -2.05    0.21   0.000   0.200   0.000    0.00
  14.900   23.24   -3.85    0.44   0.000   0.200   0.000    0.00
  14.950   23.37   -2.61    0.84   0.000   0.200   0.000    0.00
  15.000   21.77   -4.20    1.03   0.000   0.200   0.000    0.00
  15.050   22.13    0.10   -0.26   0.000   0.200   0.000    0.00
  15.100   22.46   -2.25   -1.00   0.000   0.200   0.000    0.00
  15.150   22.79   -3.42   -2.23   0.000   0.200   0.000    0.00
  15.200   22.59   -1.78   -2.31   0.000   0.200   0.000    0.00
  15.250   22.10   -2.94   -1.88   0.000   0.200   0.000    0.00
  15.300   21.85   -0.32   -1.01   0.000   0.200   0.000    0.00
  15.350   20.34   -3.66   -1.38   0.000   0.200   0.000    0.00
  15.400   21.40   -5.66   -1.43   0.000   0.200   0.000    0.00
  15.450   22.12   -2.77   -0.78   0.000   0.200   0.000    0.00
  15.500   21.23   -1.28    0.52   0.000   0.200   0.000    0.00
  15.550   21.21   -5.49   -0.07   0.000   0.200   0.000    0.00
  15.600   21.25   -2.12   -0.55   0.000   0.200   0.000    0.00
  15.650   22.30   -3.68   -0.73   0.000   0.200   0.000    0.00
  15.700   22.45    0.48   -0.73   0.000   0.200   0.000    0.00
  15.750   22.78    2.49   -1.06   0.000   0.200   0.000    0.00
  15.800   22.27    3.12   -1.19   0.000   0.200   0.000    0.00
  15.850   21.32    5.80   -1.94   0.000   0.200   0.000    0.00
  15.900   21.50    5.21   -1.78   0.000   0.200   0.000    0.00
  15.950   22.55    8.49   -1.18   0.000   0.200   0.000    0.00
  16.000   22.95    9.03   -1.15   0.000   0.200   0.000    0.00
  16.050   22.51    6.81   -1.02   0.000   0.200   0.000    0.00
  16.100   21.93    7.91   -0.85   0.000   0.200   0.000    0.00
  16.150   22.59    4.91    0.76   0.000   0.200   0.000    0.00
  16.200   23.49    0.66    0.20   0.000   0.200   0.000    0.00
  16.250   24.35    1.85   -1.33   0.000   0.200   0.000    0.00
  16.300   23.89    0.28   -1.25   0.000   0.200   0.000    0.00
  16.350   24.63   -1.21   -1.93   0.000   0.200   0.000    0.00
  16.400   24.60   -4.74   -2.48   0.000   0.200   0.000    0.00
  16.450   25.37   -6.11   -1.50   0.000   0.200   0.000    0.00
  16.500   25.42   -5.36   -1.20   0.000   0.200   0.000    0.00
  16.550   26.10   -2.43   -1.41   0.000   0.200   0.000    0.00
  16.600   26.82   -4.38   -1.63   0.000   0.200   0.000    0.00
  16.650   26.14   -3.96   -1.98   0.000   0.200   0.000    0.00
  16.700   25.55   -2.93   -3.19   0.000   0.200   0.000    0.00
  16.750   24.92   -2.72   -3.41   0.000   0.200   0.000    0.00
  16.800   23.64   -3.41   -2.28   0.000   0.200   0.000    0.00
  16.850   23.73   -2.70   -3.75   0.000   0.200   0.000    0.00
  16.900   24.17   -4.62   -4.07   0.000   0.200   0.000    0.00
  16.950   24.52   -3.25   -2.88   0.000   0.200   0.000    0.00
  17.000   25.68    0.49   -3.48   0.000   0.200   0.000    0.00
  17.050   24.93    0.39   -4.37   0.000   0.200   0.000    0.00
  17.100   24.53    0.99   -3.53   0.000   0.200   0.000    0.00
  17.150   25.16    3.44   -2.14   0.000   0.200   0.000    0.00
  17.200   25.50    1.56   -1.97   0.000   0.200   0.000    0.00
  17.250   24.94   -1.83   -1.72   0.000   0.200   0.000    0.00
  17.300   23.66   -1.20   -0.64   0.000   0.200   0.000    0.00
  17.350   22.77    0.38    0.28   0.000   0.200   0.000    0.00
  17.400   22.70    2.16    1.43   0.000   0.200   0.000    0.00
  17.450   23.54    1.52    1.84   0.000   0.200   0.000    0.00
  17.500   23.35    3.68    0.75   0.000   0.200   0.000    0.00
  17.550   24.02    3.30    0.24   0.000   0.200   0.000    0.00
  17.600   24.49    7.05    0.33   0.000   0.200   0.000    0.00
  17.650   23.91   11.67   -0.02   0.000   0.200   0.000    0.00
  17.700   23.95   12.77   -0.75   0.000   0.200   0.000    0.00
  17.750   24.01   12.65   -0.90   0.000   0.200   0.000    0.00
  17.800   24.21   10.21   -1.01   0.000   0.200   0.000    0.00
  17.850   23.68    8.08    0.19   0.000   0.200   0.000    0.00
  17.900   24.07    6.06    1.58   0.000   0.200   0.000    0.00
  17.950   22.87    6.59    0.85   0.000   0.200   0.000    0.00
  18.000   23.32   11.09    0.98   0.000   0.200   0.000    0.00
  18.050   23.44   12.17    1.19   0.000   0.200   0.000    0.00
  18.100   22.52   12.30    1.21   0.000   0.200   0.000    0.00
  18.150   24.37   13.90    0.68   0.000   0.200   0.000    0.00
  18.200   24.21   12.10    0.13   0.000   0.200   0.000    0.00
  18.250   25.09    9.62   -0.98   0.000   0.200   0.000    0.00
  18.300   26.51   11.42    0.01   0.000   0.200   0.000    0.00
  18.350   25.20   13.12   -0.58   0.000   0.200   0.000    0.00
  18.400   25.02    9.90   -1.60   0.000   0.200   0.000    0.00
  18.450   24.37    6.05   -1.90   0.000   0.200   0.000    0.00
  18.500   24.24    9.65   -0.77   0.000   0.200   0.000    0.00
  18.550   24.65    8.07   -0.92   0.000   0.200   0.000    0.00
  18.600   25.01    8.86   -1.74   0.000   0.200   0.000    0.00
  18.650   25.20    8.73   -0.54   0.000   0.200   0.000    0.00
  18.700   24.61    6.27    0.90   0.000   0.200   0.000    0.00
  18.750   24.16    5.40    0.32   0.000   0.200   0.000    0.00
  18.800   23.42    7.44    0.17   0.000   0.200   0.000    0.00
  18.850   23.64    3.97    1.98   0.000   0.200   0.000    0.00
  18.900   24.92    5.75    1.84   0.000   0.200   0.000    0.00
  18.950   25.17    9.54    1.11   0.000   0.200   0.000    0.00
  19.000   25.22    7.97    1.23   0.000   0.200   0.000    0.00
  19.050   25.09    8.64    1.29   0.000   0.200   0.000    0.00
  19.100   24.63    9.73    2.76   0.000   0.200   0.000    0.00
  19.150   25.38    5.77    1.74   0.000   0.200   0.000    0.00
  19.200   25.95    7.12    1.00   0.000   0.200   0.000    0.00
  19.250   26.32    5.38    0.52   0.000   0.200   0.000    0.00
  19.300   26.05    5.62    0.43   0.000   0.200   0.000    0.00
  19.350   24.98    4.06   -0.02   0.000   0.200   0.000    0.00
  19.400   24.97   -1.75   -0.69   0.000   0.200   0.000    0.00
  19.450   24.04    1.16   -1.36   0.000   0.200   0.000    0.00
  19.500   22.88    1.63   -2.17   0.000   0.200   0.000    0.00
  19.550   23.66   -1.18   -2.36   0.000   0.200   0.000    0.00
  19.600   23.75   -1.02   -1.42   0.000   0.200   0.000    0.00
  19.650   24.86   -2.48   -1.69   0.000   0.200   0.000    0.00
  19.700   23.94   -1.45   -1.29   0.000   0.200   0.000    0.00
  19.750   22.75    1.27    0.63   0.000   0.200   0.000    0.00
  19.800   22.05   -0.86    1.06   0.000   0.200   0.000    0.00
  19.850   22.19   -0.14    0.93   0.000   0.200   0.000    0.00
  19.900   21.76    0.66    0.83   0.000   0.200   0.000    0.00
  19.950   22.18    2.02    1.53   0.000   0.200   0.000    0.00
  20.000   21.76    1.97   -0.14   0.000   0.200   0.000    0.00
  20.050   22.62   -1.43    0.65   0.000   0.200   0.000    0.00
  20.100   22.37   -2.29    2.24   0.000   0.200   0.000    0.00
  20.150   22.09   -0.59    2.25   0.000   0.200   0.000    0.00
  20.200   21.58    4.36    4.38   0.000   0.200   0.000    0.00
  20.250   21.75    3.05    4.92   0.000   0.200   0.000    0.00
  20.300   21.82   -0.44    3.20   0.000   0.200   0.000    0.00
  20.350   21.98    3.89    2.40   0.000   0.200   0.000    0.00
  20.400   21.65    3.62    1.90   0.000   0.200   0.000    0.00
  20.450   20.05    5.42    2.99   0.000   0.200   0.000    0.00
  20.500   19.53    5.14    2.83   0.000   0.200   0.000    0.00
  20.550   19.27    0.43    3.04   0.000   0.200   0.000    0.00
  20.600   18.14   -2.83    2.19   0.000   0.200   0.000    0.00
  20.650   17.92   -2.25    2.61   0.000   0.200   0.000    0.00
  20.700   18.96   -3.18    2.61   0.000   0.200   0.000    0.00
  20.750   19.05   -5.25    2.79   0.000   0.200   0.000    0.00
  20.800   19.83   -4.86    2.35   0.000   0.200   0.000    0.00
  20.850   20.44   -5.35    1.18   0.000   0.200   0.000    0.00
  20.900   20.23   -9.52    0.76   0.000   0.200   0.000    0.00
  20.950   21.11   -8.50    1.01   0.000   0.200   0.000    0.00
  21.000   21.95   -4.90    2.35   0.000   0.200   0.000    0.00
  21.050   23.78   -4.49    2.12   0.000   0.200   0.000    0.00
  21.100   22.32   -4.12    0.50   0.000   0.200   0.000    0.00
  21.150   21.65   -0.86    0.37   0.000   0.200   0.000    0.00
  21.200   21.73    0.12    0.89   0.000   0.200   0.000    0.00
  21.250   22.17   -0.90    0.72   0.000   0.200   0.000    0.00
  21.300   23.16   -2.99    0.45   0.000   0.200   0.000    0.00
  21.350   23.25   -3.51   -0.45   0.000   0.200   0.000    0.00
  21.400   23.03    1.38   -1.03   0.000   0.200   0.000    0.00
  21.450   23.47   -2.71   -2.82   0.000   0.200   0.000    0.00
  21.500   23.29   -3.38   -1.06   0.000   0.200   0.000    0.00
  21.550   23.20   -0.98   -1.73   0.000   0.200   0.000    0.00
  21.600   23.19    0.53   -1.17   0.000   0.200   0.000    0.00
  21.650   22.68   -0.88   -1.67   0.000   0.200   0.000    0.00
  21.700   21.70   -3.50   -1.04   0.000   0.200   0.000    0.00
  21.750   21.10   -6.20    0.00   0.000   0.200   0.000    0.00
  21.800   20.91   -8.09    0.61   0.000   0.200   0.000    0.00
  21.850   20.40   -6.05    0.38   0.000   0.200   0.000    0.00
  21.900   19.63   -4.85    0.39   0.000   0.200   0.000    0.00
  21.950   20.85   -3.34   -0.68   0.000   0.200   0.000    0.00
  22.000   20.75   -0.40    1.26   0.000   0.200   0.000    0.00
  22.050   21.18    2.43    0.51   0.000   0.200   0.000    0.00
  22.100   22.20    2.26    1.18   0.000   0.200   0.000    0.00
  22.150   22.58    2.01    0.26   0.000   0.200   0.000    0.00
  22.200   23.16   -0.18    0.19   0.000   0.200   0.000    0.00
  22.250   22.48    0.90    0.36   0.000   0.200   0.000    0.00
  22.300   21.91    1.81   -0.62   0.000   0.200   0.000    0.00
  22.350   21.68    1.36   -0.56   0.000   0.200   0.000    0.00