! This hub-height wind-speed file was generated by TurbSim (v1.06.00, 21-Sep-2012) on 03-Feb-2018 at 23:35:05.
!
! The requested statistics for this data were:
!    Mean Total Wind Speed =    7.000 m/s
!    Turbulence Intensity  =   21.700%
!
!   Time  HorSpd  WndDir  VerSpd  HorShr  VerShr  LnVShr  GstSpd
!  (sec)   (m/s)   (deg)   (m/s)     (-)     (-)     (-)   (m/s)
   0.000    5.66    7.38    0.28   0.000   0.200   0.000    0.00
   0.050    5.78    8.33   -0.13   0.000   0.200   0.000    0.00
   0.100    5.84    8.81   -0.45   0.000   0.200   0.000    0.00
   0.150    6.29    7.15   -0.36   0.000   0.200   0.000    0.00
   0.200    6.52    3.40   -0.25   0.000   0.200   0.000    0.00
   0.250    6.18    4.14   -0.15   0.000   0.200   0.000    0.00
   0.300    5.97    4.47   -0.18   0.000   0.200   0.000    0.00
   0.350    5.92    1.84   -0.20   0.000   0.200   0.000    0.00
   0.400    5.56    2.47   -0.33   0.000   0.200   0.000    0.00
   0.450    5.81    3.99   -0.26   0.000   0.200   0.000    0.00
   0.500    5.56    5.69   -0.11   0.000   0.200   0.000    0.00
   0.550    5.38    1.34    0.17   0.000   0.200   0.000    0.00
   0.600    5.82   -0.32    0.00   0.000   0.200   0.000    0.00
   0.650    5.67    2.75   -0.58   0.000   0.200   0.000    0.00
   0.700    5.41    2.72   -0.49   0.000   0.200   0.000    0.00
   0.750    5.66    2.67   -0.66   0.000   0.200   0.000    0.00
   0.800    5.73    5.45   -0.41   0.000   0.200   0.000    0.00
   0.850    5.63    7.51   -0.28   0.000   0.200   0.000    0.00
   0.900    5.49    7.73   -0.49   0.000   0.200   0.000    0.00
   0.950    5.99    5.38   -0.76   0.000   0.200   0.000    0.00
   1.000    6.32    3.66   -0.81   0.000   0.200   0.000    0.00
   1.050    6.28    2.03   -0.71   0.000   0.200   0.000    0.00
   1.100    6.06    2.00   -0.68   0.000   0.200   0.000    0.00
   1.150    6.19   -1.91   -0.61   0.000   0.200   0.000    0.00
   1.200    5.99   -1.90   -0.49   0.000   0.200   0.000    0.00
   1.250    5.93   -4.34   -0.15   0.000   0.200   0.000    0.00
   1.300    6.17    0.70   -0.28   0.000   0.200   0.000    0.00
   1.350    6.27   -0.21   -0.59   0.000   0.200   0.000    0.00
   1.400    6.11   -0.56   -0.45   0.000   0.200   0.000    0.00
   1.450    6.09   -3.96   -0.70   0.000   0.200   0.000    0.00
   1.500    5.81   -4.57   -0.80   0.000   0.200   0.000    0.00
   1.550    6.10   -1.89   -0.76   0.000   0.200   0.000    0.00
   1.600    6.02   -2.64   -0.64   0.000   0.200   0.000    0.00
   1.650    6.31   -5.04   -0.72   0.000   0.200   0.000    0.00
   1.700    6.21   -9.62   -1.11   0.000   0.200   0.000    0.00
   1.750    5.95   -9.84   -0.78   0.000   0.200   0.000    0.00
   1.800    6.18   -7.82   -0.79   0.000   0.200   0.000    0.00
   1.850    6.17   -4.35   -0.62   0.000   0.200   0.000    0.00
   1.900    5.92   -2.44   -0.63   0.000   0.200   0.000    0.00
   1.950    6.02   -3.59   -0.29   0.000   0.200   0.000    0.00
   2.000    5.72   -2.84    0.09   0.000   0.200   0.000    0.00
   2.050    5.91   -0.37    0.06   0.000   0.200   0.000    0.00
   2.100    5.79   -5.23   -0.27   0.000   0.200   0.000    0.00
   2.150    5.65   -4.56   -0.21   0.000   0.200   0.000    0.00
   2.200    6.04   -2.61   -0.23   0.000   0.200   0.000    0.00
   2.250    6.19   -3.79   -0.28   0.000   0.200   0.000    0.00
   2.300    6.29   -3.36   -0.34   0.000   0.200   0.000    0.00
   2.350    6.36   -5.66   -0.67   0.000   0.200   0.000    0.00
   2.400    6.50   -7.25   -0.52   0.000   0.200   0.000    0.00
   2.450    6.62   -6.77   -0.71   0.000   0.200   0.000    0.00
   2.500    6.36   -6.54   -0.91   0.000   0.200   0.000    0.00
   2.550    6.48   -5.05   -1.16   0.000   0.200   0.000    0.00
   2.600    6.57   -7.42   -0.98   0.000   0.200   0.000    0.00
   2.650    6.85   -6.90   -1.13   0.000   0.200   0.000    0.00
   2.700    6.97   -4.08   -0.72   0.000   0.200   0.000    0.00
   2.750    6.96   -5.04   -0.66   0.000   0.200   0.000    0.00
   2.800    7.02   -7.33   -0.33   0.000   0.200   0.000    0.00
   2.850    6.98   -6.72   -0.17   0.000   0.200   0.000    0.00
   2.900    6.43   -9.36   -0.09   0.000   0.200   0.000    0.00
   2.950    6.15   -6.42   -0.34   0.000   0.200   0.000    0.00
   3.000    6.45   -2.94    0.11   0.000   0.200   0.000    0.00
   3.050    6.54   -3.71   -0.01   0.000   0.200   0.000    0.00
   3.100    6.64   -2.58   -0.34   0.000   0.200   0.000    0.00
   3.150    6.84   -3.91   -0.72   0.000   0.200   0.000    0.00
   3.200    6.60   -5.71   -0.84   0.000   0.200   0.000    0.00
   3.250    6.80   -7.20   -1.20   0.000   0.200   0.000    0.00
   3.300    6.82   -5.76   -1.27   0.000   0.200   0.000    0.00
   3.350    6.88   -4.18   -0.97   0.000   0.200   0.000    0.00
   3.400    7.02   -4.56   -0.75   0.000   0.200   0.000    0.00
   3.450    6.77   -3.26   -0.73   0.000   0.200   0.000    0.00
   3.500    6.61   -4.41   -0.94   0.000   0.200   0.000    0.00
   3.550    6.62   -0.15   -1.07   0.000   0.200   0.000    0.00
   3.600    6.27    2.69   -1.07   0.000   0.200   0.000    0.00
   3.650    6.22    2.34   -1.09   0.000   0.200   0.000    0.00
   3.700    6.37   -3.02   -0.88   0.000   0.200   0.000    0.00
   3.750    6.47   -2.90   -0.81   0.000   0.200   0.000    0.00
   3.800    6.20   -4.21   -0.81   0.000   0.200   0.000    0.00
   3.850    6.43   -4.48   -0.59   0.000   0.200   0.000    0.00
   3.900    6.83   -3.20   -0.35   0.000   0.200   0.000    0.00
   3.950    7.00   -1.35   -0.44   0.000   0.200   0.000    0.00
   4.000    6.84   -2.55   -0.85   0.000   0.200   0.000    0.00
   4.050    6.89   -0.40   -0.91   0.000   0.200   0.000    0.00
   4.100    6.73    2.64   -0.88   0.000   0.200   0.000    0.00
   4.150    6.87    3.10   -0.79   0.000   0.200   0.000    0.00
   4.200    7.32    1.88   -0.65   0.000   0.200   0.000    0.00
   4.250    6.96    5.60   -0.85   0.000   0.200   0.000    0.00
   4.300    7.03    2.47   -0.63   0.000   0.200   0.000    0.00
   4.350    6.77    4.96   -0.87   0.000   0.200   0.000    0.00
   4.400    6.75    5.91   -0.61   0.000   0.200   0.000    0.00
   4.450    6.85    6.03   -0.61   0.000   0.200   0.000    0.00
   4.500    6.42   10.77   -0.38   0.000   0.200   0.000    0.00
   4.550    6.33    8.36   -0.34   0.000   0.200   0.000    0.00
   4.600    6.22    8.84   -0.51   0.000   0.200   0.000    0.00
   4.650    6.31   11.15   -0.44   0.000   0.200   0.000    0.00
   4.700    6.61    9.70   -0.56   0.000   0.200   0.000    0.00
   4.750    6.81    9.69   -0.40   0.000   0.200   0.000    0.00
   4.800    6.91    9.37   -0.13   0.000   0.200   0.000    0.00
   4.850    7.04    6.46   -0.32   0.000   0.200   0.000    0.00
   4.900    7.07    3.24   -0.50   0.000   0.200   0.000    0.00
   4.950    7.09    2.30   -0.35   0.000   0.200   0.000    0.00
   5.000    7.00    2.76   -0.63   0.000   0.200   0.000    0.00
   5.050    6.77    5.00   -0.41   0.000   0.200   0.000    0.00
   5.100    6.68    6.68   -0.17   0.000   0.200   0.000    0.00
   5.150    7.00    4.31   -0.43   0.000   0.200   0.000    0.00
   5.200    6.67    5.45   -0.47   0.000   0.200   0.000    0.00
   5.250    6.72    3.61    0.00   0.000   0.200   0.000    0.00
   5.300    6.73    2.15    0.38   0.000   0.200   0.000    0.00
   5.350    6.95    4.72   -0.01   0.000   0.200   0.000    0.00
   5.400    7.07    5.86   -0.40   0.000   0.200   0.000    0.00
   5.450    6.96    6.27   -0.13   0.000   0.200   0.000    0.00
   5.500    7.11    8.47   -0.06   0.000   0.200   0.000    0.00
   5.550    6.95    9.14    0.00   0.000   0.200   0.000    0.00
   5.600    6.72   11.38   -0.15   0.000   0.200   0.000    0.00
   5.650    6.75   12.89   -0.31   0.000   0.200   0.000    0.00
   5.700    6.55   12.10   -0.34   0.000   0.200   0.000    0.00
   5.750    6.30    9.32   -0.73   0.000   0.200   0.000    0.00
   5.800    5.89   14.13   -0.72   0.000   0.200   0.000    0.00
   5.850    6.19   16.00   -0.88   0.000   0.200   0.000    0.00
   5.900    6.10   15.28   -1.19   0.000   0.200   0.000    0.00
   5.950    6.31   13.91   -1.26   0.000   0.200   0.000    0.00
   6.000    6.77   13.99   -1.63   0.000   0.200   0.000    0.00
   6.050    6.82    9.46   -1.85   0.000   0.200   0.000    0.00
   6.100    6.85   10.85   -1.71   0.000   0.200   0.000    0.00
   6.150    6.98   15.83   -1.51   0.000   0.200   0.000    0.00
   6.200    7.10   17.25   -1.00   0.000   0.200   0.000    0.00
   6.250    7.24   18.55   -1.31   0.000   0.200   0.000    0.00
   6.300    7.27   17.60   -1.13   0.000   0.200   0.000    0.00
   6.350    6.91   17.89   -1.16   0.000   0.200   0.000    0.00
   6.400    6.45   20.32   -0.65   0.000   0.200   0.000    0.00
   6.450    6.43   22.34   -0.38   0.000   0.200   0.000    0.00
   6.500    6.86   20.49   -0.56   0.000   0.200   0.000    0.00
   6.550    7.12   20.07   -0.41   0.000   0.200   0.000    0.00
   6.600    7.23   20.76   -0.63   0.000   0.200   0.000    0.00
   6.650    7.28   20.08   -1.04   0.000   0.200   0.000    0.00
   6.700    7.14   21.99   -0.84   0.000   0.200   0.000    0.00
   6.750    7.26   21.43   -0.72   0.000   0.200   0.000    0.00
   6.800    7.33   18.71   -0.99   0.000   0.200   0.000    0.00
   6.850    7.46   20.02   -1.11   0.000   0.200   0.000    0.00
   6.900    7.57   21.24   -1.14   0.000   0.200   0.000    0.00
   6.950    7.61   22.04   -1.03   0.000   0.200   0.000    0.00
   7.000    7.44   23.77   -1.12   0.000   0.200   0.000    0.00
   7.050    7.48   22.44   -1.35   0.000   0.200   0.000    0.00
   7.100    7.25   20.79   -1.09   0.000   0.200   0.000    0.00
   7.150    7.31   18.67   -0.85   0.000   0.200   0.000    0.00
   7.200    7.20   17.86   -0.95   0.000   0.200   0.000    0.00
   7.250    7.38   16.79   -0.88   0.000   0.200   0.000    0.00
   7.300    7.48   17.83   -0.96   0.000   0.200   0.000    0.00
   7.350    7.79   19.21   -0.62   0.000   0.200   0.000    0.00
   7.400    7.57   20.49   -0.72   0.000   0.200   0.000    0.00
   7.450    7.52   20.65   -0.98   0.000   0.200   0.000    0.00
   7.500    7.81   20.09   -0.78   0.000   0.200   0.000    0.00
   7.550    7.49   17.47   -0.61   0.000   0.200   0.000    0.00
   7.600    7.44   16.69   -0.75   0.000   0.200   0.000    0.00
   7.650    7.35   16.45   -0.85   0.000   0.200   0.000    0.00
   7.700    7.40   16.35   -0.74   0.000   0.200   0.000    0.00
   7.750    7.28   16.62   -0.45   0.000   0.200   0.000    0.00
   7.800    7.29   16.21   -0.64   0.000   0.200   0.000    0.00
   7.850    7.63   18.77   -0.72   0.000   0.200   0.000    0.00
   7.900    7.76   18.26   -0.64   0.000   0.200   0.000    0.00
   7.950    7.42   18.49   -0.36   0.000   0.200   0.000    0.00
   8.000    7.37   19.04   -0.67   0.000   0.200   0.000    0.00
   8.050    7.49   15.84   -1.00   0.000   0.200   0.000    0.00
   8.100    7.56   13.85   -1.10   0.000   0.200   0.000    0.00
   8.150    7.40   13.99   -0.69   0.000   0.200   0.000    0.00
   8.200    7.45   12.10   -0.88   0.000   0.200   0.000    0.00
   8.250    7.59   10.71   -0.73   0.000   0.200   0.000    0.00
   8.300    7.50    9.01   -0.66   0.000   0.200   0.000    0.00
   8.350    7.79    5.37   -0.66   0.000   0.200   0.000    0.00
   8.400    7.52    8.10   -0.69   0.000   0.200   0.000    0.00
   8.450    7.33    9.29   -0.68   0.000   0.200   0.000    0.00
   8.500    7.33    7.33   -0.65   0.000   0.200   0.000    0.00
   8.550    7.28    9.15   -0.89   0.000   0.200   0.000    0.00
   8.600    7.28    6.31   -0.77   0.000   0.200   0.000    0.00
   8.650    7.60    3.66   -0.84   0.000   0.200   0.000    0.00
   8.700    7.54    3.66   -0.63   0.000   0.200   0.000    0.00
   8.750    7.84    3.62   -0.75   0.000   0.200   0.000    0.00
   8.800    7.72    2.71   -0.71   0.000   0.200   0.000    0.00
   8.850    8.00    4.80   -0.75   0.000   0.200   0.000    0.00
   8.900    7.86    8.96   -0.59   0.000   0.200   0.000    0.00
   8.950    7.89    6.91   -0.34   0.000   0.200   0.000    0.00
   9.000    8.32    9.50   -0.34   0.000   0.200   0.000    0.00
   9.050    8.49    6.25   -0.39   0.000   0.200   0.000    0.00
   9.100    8.37    6.07   -0.62   0.000   0.200   0.000    0.00
   9.150    8.16    7.21   -0.69   0.000   0.200   0.000    0.00
   9.200    8.22    4.69   -0.64   0.000   0.200   0.000    0.00
   9.250    8.53    4.51   -0.71   0.000   0.200   0.000    0.00
   9.300    8.48    4.15   -0.38   0.000   0.200   0.000    0.00
   9.350    8.64    3.99   -0.45   0.000   0.200   0.000    0.00
   9.400    8.62    1.87   -0.43   0.000   0.200   0.000    0.00
   9.450    8.40    1.92   -0.16   0.000   0.200   0.000    0.00
   9.500    8.55   -0.17    0.08   0.000   0.200   0.000    0.00
   9.550    8.67    1.66    0.20   0.000   0.200   0.000    0.00
   9.600    8.01    4.31    0.16   0.000   0.200   0.000    0.00
   9.650    7.68    5.45    0.49   0.000   0.200   0.000    0.00
   9.700    7.91    6.12    0.50   0.000   0.200   0.000    0.00
   9.750    7.76    9.19    0.36   0.000   0.200   0.000    0.00
   9.800    7.82    8.70    0.53   0.000   0.200   0.000    0.00
   9.850    7.71    8.93    0.12   0.000   0.200   0.000    0.00
   9.900    7.51    9.18   -0.19   0.000   0.200   0.000    0.00
   9.950    7.78   10.02   -0.01   0.000   0.200   0.000    0.00
  10.000    7.63    7.82    0.14   0.000   0.200   0.000    0.00
  10.050    7.62    5.47   -0.15   0.000   0.200   0.000    0.00
  10.100    7.62    4.46   -0.56   0.000   0.200   0.000    0.00
  10.150    7.64    1.64   -0.19   0.000   0.200   0.000    0.00
  10.200    7.72    2.48    0.12   0.000   0.200   0.000    0.00
  10.250    7.76    2.34    0.19   0.000   0.200   0.000    0.00
  10.300    7.71    1.70    0.25   0.000   0.200   0.000    0.00
  10.350    7.49    0.01    0.49   0.000   0.200   0.000    0.00
  10.400    6.90    1.70    0.18   0.000   0.200   0.000    0.00
  10.450    7.49    2.60   -0.20   0.000   0.200   0.000    0.00
  10.500    7.23    4.81   -0.01   0.000   0.200   0.000    0.00
  10.550    7.40    4.13   -0.30   0.000   0.200   0.000    0.00
  10.600    7.58    3.29   -0.23   0.000   0.200   0.000    0.00
  10.650    7.57    4.67   -0.49   0.000   0.200   0.000    0.00
  10.700    7.73    6.92   -0.44   0.000   0.200   0.000    0.00
  10.750    7.75    7.98   -0.36   0.000   0.200   0.000    0.00
  10.800    7.58    8.99   -0.54   0.000   0.200   0.000    0.00
  10.850    7.12    6.83   -0.83   0.000   0.200   0.000    0.00
  10.900    7.06    1.55   -1.11   0.000   0.200   0.000    0.00
  10.950    7.07    0.37   -0.90   0.000   0.200   0.000    0.00
  11.000    7.31   -0.34   -0.98   0.000   0.200   0.000    0.00
  11.050    7.59   -1.95   -0.97   0.000   0.200   0.000    0.00
  11.100    7.68   -6.47   -1.50   0.000   0.200   0.000    0.00
  11.150    7.64   -5.35   -1.21   0.000   0.200   0.000    0.00
  11.200    7.62   -3.55   -0.96   0.000   0.200   0.000    0.00
  11.250    7.71   -3.48   -1.45   0.000   0.200   0.000    0.00
  11.300    8.04   -2.95   -1.68   0.000   0.200   0.000    0.00
  11.350    8.21   -2.11   -1.60   0.000   0.200   0.000    0.00
  11.400    8.39   -3.69   -1.44   0.000   0.200   0.000    0.00
  11.450    8.56   -3.77   -1.64   0.000   0.200   0.000    0.00
  11.500    8.54   -4.08   -1.53   0.000   0.200   0.000    0.00
  11.550    8.31   -4.05   -1.31   0.000   0.200   0.000    0.00
  11.600    8.27   -1.00   -1.54   0.000   0.200   0.000    0.00
  11.650    8.41    0.93   -1.37   0.000   0.200   0.000    0.00
  11.700    8.38    1.46   -0.94   0.000   0.200   0.000    0.00
  11.750    8.60    4.37   -1.18   0.000   0.200   0.000    0.00
  11.800    8.55    5.98   -1.12   0.000   0.200   0.000    0.00
  11.850    8.73    8.37   -1.52   0.000   0.200   0.000    0.00
  11.900    8.51    7.45   -1.49   0.000   0.200   0.000    0.00
  11.950    8.36    7.38   -1.28   0.000   0.200   0.000    0.00
  12.000    8.51    8.79   -0.92   0.000   0.200   0.000    0.00
  12.050    8.47   11.25   -1.07   0.000   0.200   0.000    0.00
  12.100    8.55    8.94   -0.93   0.000   0.200   0.000    0.00
  12.150    8.87    9.00   -1.24   0.000   0.200   0.000    0.00
  12.200    8.95    8.94   -1.06   0.000   0.200   0.000    0.00
  12.250    8.73    9.63   -1.41   0.000   0.200   0.000    0.00
  12.300    8.56    8.64   -1.09   0.000   0.200   0.000    0.00
  12.350    8.55    8.90   -1.06   0.000   0.200   0.000    0.00
  12.400    8.67   11.94   -0.93   0.000   0.200   0.000    0.00
  12.450    8.71   12.55   -0.57   0.000   0.200   0.000    0.00
  12.500    8.74   13.57   -0.67   0.000   0.200   0.000    0.00
  12.550    8.63    9.92   -1.00   0.000   0.200   0.000    0.00
  12.600    8.53   12.52   -0.78   0.000   0.200   0.000    0.00
  12.650    8.56   14.29   -0.93   0.000   0.200   0.000    0.00
  12.700    8.50   16.18   -0.66   0.000   0.200   0.000    0.00
  12.750    8.55   16.24   -0.41   0.000   0.200   0.000    0.00
  12.800    8.35   16.57   -0.20   0.000   0.200   0.000    0.00
  12.850    8.34   16.80   -0.27   0.000   0.200   0.000    0.00
  12.900    8.35   17.29   -0.75   0.000   0.200   0.000    0.00
  12.950    8.49   15.06   -0.78   0.000   0.200   0.000    0.00
  13.000    8.38   13.41   -0.76   0.000   0.200   0.000    0.00
  13.050    8.33   14.15   -1.03   0.000   0.200   0.000    0.00
  13.100    8.55   11.62   -0.65   0.000   0.200   0.000    0.00
  13.150    8.66   10.75   -0.92   0.000   0.200   0.000    0.00
  13.200    8.39   13.60   -0.81   0.000   0.200   0.000    0.00
  13.250    8.59   13.37   -0.83   0.000   0.200   0.000    0.00
  13.300    8.68   14.63   -0.36   0.000   0.200   0.000    0.00
  13.350    8.56   14.71   -0.10   0.000   0.200   0.000    0.00
  13.400    8.58   13.07   -0.04   0.000   0.200   0.000    0.00
  13.450    8.26   13.92   -0.39   0.000   0.200   0.000    0.00
  13.500    8.11   16.15   -0.20   0.000   0.200   0.000    0.00
  13.550    8.45   15.54    0.14   0.000   0.200   0.000    0.00
  13.600    8.75   14.72    0.38   0.000   0.200   0.000    0.00
  13.650    8.84   16.64    0.34   0.000   0.200   0.000    0.00
  13.700    8.94   15.97    0.10   0.000   0.200   0.000    0.00
  13.750    8.92   16.14    0.29   0.000   0.200   0.000    0.00
  13.800    9.03   15.66    0.45   0.000   0.200   0.000    0.00
  13.850    9.19   15.05    0.11   0.000   0.200   0.000    0.00
  13.900    9.18   15.04    0.48   0.000   0.200   0.000    0.00
  13.950    9.11   15.72    0.22   0.000   0.200   0.000    0.00
  14.000    9.00   16.49    0.00   0.000   0.200   0.000    0.00
  14.050    8.86   17.39    0.21   0.000   0.200   0.000    0.00
  14.100    8.93   16.11    0.35   0.000   0.200   0.000    0.00
  14.150    9.11   14.06    0.24   0.000   0.200   0.000    0.00
  14.200    8.95   13.82    0.21   0.000   0.200   0.000    0.00
  14.250    8.70   12.72    0.34   0.000   0.200   0.000    0.00
  14.300    9.07   13.75    0.57   0.000   0.200   0.000    0.00
  14.350    9.01   12.82    1.00   0.000   0.200   0.000    0.00
  14.400    9.29   16.77    0.60   0.000   0.200   0.000    0.00
  14.450    9.42   16.96    0.47   0.000   0.200   0.000    0.00
  14.500    9.62   17.05    0.30   0.000   0.200   0.000    0.00
  14.550    9.43   15.25    0.49   0.000   0.200   0.000    0.00
  14.600    9.17   13.79    0.66   0.000   0.200   0.000    0.00
  14.650    9.14   13.49    0.58   0.000   0.200   0.000    0.00
  14.700    9.43   13.91    0.53   0.000   0.200   0.000    0.00
  14.750    9.48   13.88    0.83   0.000   0.200   0.000    0.00
  14.800    9.43   13.91    0.89   0.000   0.200   0.000    0.00
  14.850    9.70   12.68    1.20   0.000   0.200   0.000    0.00
  14.900    9.82   11.55    1.21   0.000   0.200   0.000    0.00
  14.950    9.69   13.19    1.23   0.000   0.200   0.000    0.00
  15.000    9.42   10.46    1.08   0.000   0.200   0.000    0.00
  15.050    9.60   12.70    1.06   0.000   0.200   0.000    0.00
  15.100    9.80   13.13    0.58   0.000   0.200   0.000    0.00
  15.150   10.10   15.59    0.41   0.000   0.200   0.000    0.00
  15.200    9.81   15.24    0.36   0.000   0.200   0.000    0.00
  15.250    9.43   13.72    0.25   0.000   0.200   0.000    0.00
  15.300    9.35   13.64    0.20   0.000   0.200   0.000    0.00
  15.350    9.21   12.47   -0.11   0.000   0.200   0.000    0.00
  15.400    9.27   12.23   -0.31   0.000   0.200   0.000    0.00
  15.450    9.29   11.19   -0.34   0.000   0.200   0.000    0.00
  15.500    9.34   11.86   -0.37   0.000   0.200   0.000    0.00
  15.550    9.70   11.89   -0.08   0.000   0.200   0.000    0.00
  15.600    9.78   12.72    0.07   0.000   0.200   0.000    0.00
  15.650   10.19   13.94    0.32   0.000   0.200   0.000    0.00
  15.700   10.00   14.35    0.24   0.000   0.200   0.000    0.00
  15.750    9.82   14.34    0.08   0.000   0.200   0.000    0.00
  15.800   10.05   12.91   -0.02   0.000   0.200   0.000    0.00
  15.850   10.33   13.91   -0.24   0.000   0.200   0.000    0.00
  15.900    9.91   12.69   -0.21   0.000   0.200   0.000    0.00
  15.950    9.94   12.31    0.06   0.000   0.200   0.000    0.00
  16.000    9.95   10.50   -0.22   0.000   0.200   0.000    0.00
  16.050   10.10    9.13   -0.32   0.000   0.200   0.000    0.00
  16.100    9.95   10.52   -0.25   0.000   0.200   0.000    0.00
  16.150    9.94   13.26    0.28   0.000   0.200   0.000    0.00
  16.200    9.86   13.20    0.47   0.000   0.200   0.000    0.00
  16.250    9.85   15.62    0.37   0.000   0.200   0.000    0.00
  16.300    9.84   16.75    0.17   0.000   0.200   0.000    0.00
  16.350   10.00   15.06    0.50   0.000   0.200   0.000    0.00
  16.400    9.91   15.19    0.19   0.000   0.200   0.000    0.00
  16.450   10.37   16.19   -0.14   0.000   0.200   0.000    0.00
  16.500   10.58   14.27   -0.43   0.000   0.200   0.000    0.00
  16.550   10.48   14.23   -0.29   0.000   0.200   0.000    0.00
  16.600   10.26   16.45   -0.35   0.000   0.200   0.000    0.00
  16.650   10.34   17.96   -0.47   0.000   0.200   0.000    0.00
  16.700   10.24   17.78   -0.23   0.000   0.200   0.000    0.00
  16.750   10.20   17.81   -0.59   0.000   0.200   0.000    0.00
  16.800   10.16   17.09   -0.64   0.000   0.200   0.000    0.00
  16.850   10.50   17.27   -0.85   0.000   0.200   0.000    0.00
  16.900   10.42   16.94   -0.82   0.000   0.200   0.000    0.00
  16.950   10.33   15.98   -0.65   0.000   0.200   0.000    0.00
  17.000   10.11   17.02   -0.86   0.000   0.200   0.000    0.00
  17.050    9.96   16.29   -0.75   0.000   0.200   0.000    0.00
  17.100   10.23   16.56   -0.37   0.000   0.200   0.000    0.00
  17.150    9.98   17.21   -0.21   0.000   0.200   0.000    0.00
  17.200    9.83   16.69   -0.20   0.000   0.200   0.000    0.00
  17.250   10.11   15.67   -0.37   0.000   0.200   0.000    0.00
  17.300    9.97   16.20   -0.70   0.000   0.200   0.000    0.00
  17.350    9.86   16.01   -0.37   0.000   0.200   0.000    0.00
  17.400   10.20   16.66   -0.32   0.000   0.200   0.000    0.00
  17.450   10.32   17.51   -0.14   0.000   0.200   0.000    0.00
  17.500   10.14   15.18   -0.09   0.000   0.200   0.000    0.00
  17.550   10.37   15.99   -0.05   0.000   0.200   0.000    0.00
  17.600   10.23   15.41    0.21   0.000   0.200   0.000    0.00
  17.650   10.44   14.53   -0.03   0.000   0.200   0.000    0.00
  17.700   10.11   14.05   -0.28   0.000   0.200   0.000    0.00
  17.750   10.21   14.71   -0.46   0.000   0.200   0.000    0.00
  17.800   10.30   13.81   -0.85   0.000   0.200   0.000    0.00
  17.850   10.39   12.97   -0.83   0.000   0.200   0.000    0.00
  17.900   10.35   10.89   -0.96   0.000   0.200   0.000    0.00
  17.950   10.25   12.52   -1.07   0.000   0.200   0.000    0.00
  18.000   10.05   11.41   -0.99   0.000   0.200   0.000    0.00
  18.050   10.34   10.64   -0.78   0.000   0.200   0.000    0.00
  18.100   10.48   11.25   -0.73   0.000   0.200   0.000    0.00
  18.150   10.35   11.02   -0.95   0.000   0.200   0.000    0.00
  18.200    9.99   10.79   -1.19   0.000   0.200   0.000    0.00
  18.250    9.74   11.33   -1.31   0.000   0.200   0.000    0.00
  18.300    9.92   12.60   -1.14   0.000   0.200   0.000    0.00
  18.350    9.89   10.75   -0.94   0.000   0.200   0.000    0.00
  18.400    9.80   12.13   -1.09   0.000   0.200   0.000    0.00
  18.450    9.64   11.56   -0.79   0.000   0.200   0.000    0.00
  18.500    9.59   11.33   -0.47   0.000   0.200   0.000    0.00
  18.550    9.56   10.02   -1.04   0.000   0.200   0.000    0.00
  18.600    9.25    9.50   -1.05   0.000   0.200   0.000    0.00
  18.650    9.54    8.58   -1.28   0.000   0.200   0.000    0.00
  18.700    9.40   10.66   -1.31   0.000   0.200   0.000    0.00
  18.750    9.75   10.19   -1.33   0.000   0.200   0.000    0.00
  18.800    9.71   11.79   -1.00   0.000   0.200   0.000    0.00
  18.850    9.56   11.72   -0.90   0.000   0.200   0.000    0.00
  18.900    9.58   11.74   -0.71   0.000   0.200   0.000    0.00
  18.950    9.96   12.34   -1.05   0.000   0.200   0.000    0.00
  19.000    9.93   12.38   -0.75   0.000   0.200   0.000    0.00
  19.050    9.65   13.32   -0.49   0.000   0.200   0.000    0.00
  19.100    9.94   15.82   -0.08   0.000   0.200   0.000    0.00
  19.150    9.88   14.41   -0.30   0.000   0.200   0.000    0.00
  19.200   10.22   13.15   -0.28   0.000   0.200   0.000    0.00
  19.250   10.08   12.28   -0.33   0.000   0.200   0.000    0.00
  19.300   10.27   12.88   -0.07   0.000   0.200   0.000    0.00
  19.350    9.90   14.13   -0.03   0.000   0.200   0.000    0.00
  19.400    9.63   13.64   -0.21   0.000   0.200   0.000    0.00
  19.450    9.73   15.03   -0.10   0.000   0.200   0.000    0.00
  19.500    9.54   13.70   -0.28   0.000   0.200   0.000    0.00
  19.550    9.49   13.80   -0.44   0.000   0.200   0.000    0.00
  19.600    9.25   15.99   -0.62   0.000   0.200   0.000    0.00
  19.650    9.35   16.24   -0.53   0.000   0.200   0.000    0.00
  19.700    8.97   15.34   -0.76   0.000   0.200   0.000    0.00
  19.750    8.94   15.34   -0.91   0.000   0.200   0.000    0.00
  19.800    8.68   15.25   -0.88   0.000   0.200   0.000    0.00
  19.850    8.47   15.22   -1.03   0.000   0.200   0.000    0.00
  19.900    8.68   15.58   -0.85   0.000   0.200   0.000    0.00
  19.950    8.78   18.55   -0.94   0.000   0.200   0.000    0.00
  20.000    8.89   16.02   -0.95   0.000   0.200   0.000    0.00
  20.050    8.87   13.95   -0.84   0.000   0.200   0.000    0.00
  20.100    9.06   15.99   -0.78   0.000   0.200   0.000    0.00
  20.150    8.91   16.69   -0.93   0.000   0.200   0.000    0.00
  20.200    8.84   16.09   -0.72   0.000   0.200   0.000    0.00
  20.250    8.92   15.11   -0.77   0.000   0.200   0.000    0.00
  20.300    9.57   15.09   -0.54   0.000   0.200   0.000    0.00
  20.350    9.42   13.99   -0.70   0.000   0.200   0.000    0.00
  20.400    9.11   16.06   -0.91   0.000   0.200   0.000    0.00
  20.450    9.47   15.22   -0.66   0.000   0.200   0.000    0.00
  20.500    9.79   14.43   -0.35   0.000   0.200   0.000    0.00
  20.550    9.68   14.19   -0.56   0.000   0.200   0.000    0.00
  20.600    9.84   15.39   -0.74   0.000   0.200   0.000    0.00
  20.650    9.49   17.50   -0.77   0.000   0.200   0.000    0.00
  20.700    9.44   18.93   -0.80   0.000   0.200   0.000    0.00
  20.750    9.26   18.17   -0.86   0.000   0.200   0.000    0.00
  20.800    9.31   19.91   -0.79   0.000   0.200   0.000    0.00
  20.850    9.26   20.31   -0.18   0.000   0.200   0.000    0.00
  20.900    9.23   22.97   -0.18   0.000   0.200   0.000    0.00
  20.950    9.15   24.51    0.16   0.000   0.200   0.000    0.00
  21.000    8.82   25.21   -0.15   0.000   0.200   0.000    0.00
  21.050    8.68   25.00   -0.24   0.000   0.200   0.000    0.00
  21.100    8.83   25.18   -0.23   0.000   0.200   0.000    0.00
  21.150    9.24   23.74    0.13   0.000   0.200   0.000    0.00
  21.200    9.08   22.73    0.49   0.000   0.200   0.000    0.00
  21.250    9.15   21.93   -0.12   0.000   0.200   0.000    0.00
  21.300    9.03   17.58   -0.25   0.000   0.200   0.000    0.00
  21.350    9.16   19.69   -0.70   0.000   0.200   0.000    0.00
  21.400    8.90   21.64   -0.50   0.000   0.200   0.000    0.00
  21.450    8.95   22.44   -0.31   0.000   0.200   0.000    0.00
  21.500    8.76   19.65   -0.17   0.000   0.200   0.000    0.00
  21.550    8.62   18.08    0.05   0.000   0.200   0.000    0.00
  21.600    8.26   16.55    0.47   0.000   0.200   0.000    0.00
  21.650    8.31   17.93    0.45   0.000   0.200   0.000    0.00
  21.700    8.38   14.28    0.68   0.000   0.200   0.000    0.00
  21.750    8.44   13.37    0.65   0.000   0.200   0.000    0.00
  21.800    8.30   13.31    0.13   0.000   0.200   0.000    0.00
  21.850    8.12   12.88    0.09   0.000   0.200   0.000    0.00
  21.900    8.34   13.34    0.02   0.000   0.200   0.000    0.00
  21.950    8.31   10.21    0.00   0.000   0.200   0.000    0.00
  22.000    8.52   10.49    0.13   0.000   0.200   0.000    0.00
  22.050    8.52   11.20    0.13   0.000   0.200   0.000    0.00
  22.100    8.61   10.67   -0.06   0.000   0.200   0.000    0.00
  22.150    8.66   10.09   -0.64   0.000   0.200   0.000    0.00
  22.200    8.36   10.80   -0.51   0.000   0.200   0.000    0.00
  22.250    8.33   12.21   -0.74   0.000   0.200   0.000    0.00
  22.300    8.17   13.61   -0.41   0.000   0.200   0.000    0.00
  22.350    8.25   13.63   -0.30   0.000   0.200   0.000    0.00