! This hub-height wind-speed file was generated by TurbSim (v1.06.00, 21-Sep-2012) on 03-Feb-2018 at 23:35:17.
!
! The requested statistics for this data were:
!    Mean Total Wind Speed =    9.000 m/s
!    Turbulence Intensity  =   32.007%
!
!   Time  HorSpd  WndDir  VerSpd  HorShr  VerShr  LnVShr  GstSpd
!  (sec)   (m/s)   (deg)   (m/s)     (-)     (-)     (-)   (m/s)
   0.000    6.42   11.76    0.62   0.000   0.200   0.000    0.00
   0.050    6.67   13.30   -0.22   0.000   0.200   0.000    0.00
   0.100    6.82   14.04   -0.87   0.000   0.200   0.000    0.00
   0.150    7.72   10.63   -0.68   0.000   0.200   0.000    0.00
   0.200    8.15    4.26   -0.46   0.000   0.200   0.000    0.00
   0.250    7.48    5.60   -0.25   0.000   0.200   0.000    0.00
   0.300    7.05    6.27   -0.30   0.000   0.200   0.000    0.00
   0.350    6.94    1.68   -0.35   0.000   0.200   0.000    0.00
   0.400    6.21    2.81   -0.61   0.000   0.200   0.000    0.00
   0.450    6.73    5.50   -0.45   0.000   0.200   0.000    0.00
   0.500    6.23    8.75   -0.15   0.000   0.200   0.000    0.00
   0.550    5.85    0.70    0.42   0.000   0.200   0.000    0.00
   0.600    6.77   -2.16    0.08   0.000   0.200   0.000    0.00
   0.650    6.47    3.32   -1.10   0.000   0.200   0.000    0.00
   0.700    5.94    3.30   -0.91   0.000   0.200   0.000    0.00
   0.750    6.46    3.16   -1.26   0.000   0.200   0.000    0.00
   0.800    6.62    8.12   -0.75   0.000   0.200   0.000    0.00
   0.850    6.45   11.89   -0.48   0.000   0.200   0.000    0.00
   0.900    6.16   12.49   -0.90   0.000   0.200   0.000    0.00
   0.950    7.17    7.78   -1.45   0.000   0.200   0.000    0.00
   1.000    7.85    4.71   -1.55   0.000   0.200   0.000    0.00
   1.050    7.76    2.02   -1.35   0.000   0.200   0.000    0.00
   1.100    7.32    1.96   -1.29   0.000   0.200   0.000    0.00
   1.150    7.61   -4.59   -1.14   0.000   0.200   0.000    0.00
   1.200    7.20   -4.72   -0.89   0.000   0.200   0.000    0.00
   1.250    7.11   -8.96   -0.19   0.000   0.200   0.000    0.00
   1.300    7.57   -0.21   -0.46   0.000   0.200   0.000    0.00
   1.350    7.78   -1.69   -1.10   0.000   0.200   0.000    0.00
   1.400    7.45   -2.33   -0.79   0.000   0.200   0.000    0.00
   1.450    7.45   -8.09   -1.32   0.000   0.200   0.000    0.00
   1.500    6.89   -9.47   -1.51   0.000   0.200   0.000    0.00
   1.550    7.45   -4.58   -1.42   0.000   0.200   0.000    0.00
   1.600    7.30   -5.90   -1.17   0.000   0.200   0.000    0.00
   1.650    7.93   -9.60   -1.34   0.000   0.200   0.000    0.00
   1.700    7.83  -17.22   -2.15   0.000   0.200   0.000    0.00
   1.750    7.30  -18.15   -1.46   0.000   0.200   0.000    0.00
   1.800    7.71  -14.35   -1.49   0.000   0.200   0.000    0.00
   1.850    7.63   -8.62   -1.14   0.000   0.200   0.000    0.00
   1.900    7.09   -5.67   -1.17   0.000   0.200   0.000    0.00
   1.950    7.31   -7.54   -0.47   0.000   0.200   0.000    0.00
   2.000    6.66   -6.59    0.32   0.000   0.200   0.000    0.00
   2.050    7.03   -2.11    0.27   0.000   0.200   0.000    0.00
   2.100    6.85  -10.69   -0.43   0.000   0.200   0.000    0.00
   2.150    6.55   -9.74   -0.30   0.000   0.200   0.000    0.00
   2.200    7.31   -5.88   -0.33   0.000   0.200   0.000    0.00
   2.250    7.63   -7.72   -0.44   0.000   0.200   0.000    0.00
   2.300    7.83   -6.91   -0.56   0.000   0.200   0.000    0.00
   2.350    8.01  -10.61   -1.24   0.000   0.200   0.000    0.00
   2.400    8.33  -13.00   -0.91   0.000   0.200   0.000    0.00
   2.450    8.57  -12.08   -1.31   0.000   0.200   0.000    0.00
   2.500    8.02  -12.07   -1.73   0.000   0.200   0.000    0.00
   2.550    8.24   -9.51   -2.23   0.000   0.200   0.000    0.00
   2.600    8.47  -13.21   -1.85   0.000   0.200   0.000    0.00
   2.650    9.04  -12.03   -2.16   0.000   0.200   0.000    0.00
   2.700    9.22   -7.54   -1.33   0.000   0.200   0.000    0.00
   2.750    9.21   -9.06   -1.20   0.000   0.200   0.000    0.00
   2.800    9.39  -12.53   -0.51   0.000   0.200   0.000    0.00
   2.850    9.28  -11.64   -0.19   0.000   0.200   0.000    0.00
   2.900    8.22  -16.59   -0.02   0.000   0.200   0.000    0.00
   2.950    7.57  -12.28   -0.54   0.000   0.200   0.000    0.00
   3.000    8.12   -6.20    0.38   0.000   0.200   0.000    0.00
   3.050    8.33   -7.38    0.14   0.000   0.200   0.000    0.00
   3.100    8.52   -5.49   -0.54   0.000   0.200   0.000    0.00
   3.150    8.94   -7.45   -1.32   0.000   0.200   0.000    0.00
   3.200    8.48  -10.56   -1.56   0.000   0.200   0.000    0.00
   3.250    8.92  -12.68   -2.30   0.000   0.200   0.000    0.00
   3.300    8.94  -10.41   -2.43   0.000   0.200   0.000    0.00
   3.350    9.04   -7.88   -1.81   0.000   0.200   0.000    0.00
   3.400    9.34   -8.37   -1.36   0.000   0.200   0.000    0.00
   3.450    8.81   -6.54   -1.32   0.000   0.200   0.000    0.00
   3.500    8.50   -8.53   -1.75   0.000   0.200   0.000    0.00
   3.550    8.48   -1.69   -2.02   0.000   0.200   0.000    0.00
   3.600    7.74    2.88   -2.02   0.000   0.200   0.000    0.00
   3.650    7.64    2.28   -2.05   0.000   0.200   0.000    0.00
   3.700    8.01   -6.55   -1.62   0.000   0.200   0.000    0.00
   3.750    8.20   -6.27   -1.49   0.000   0.200   0.000    0.00
   3.800    7.68   -8.71   -1.49   0.000   0.200   0.000    0.00
   3.850    8.16   -8.90   -1.03   0.000   0.200   0.000    0.00
   3.900    8.97   -6.50   -0.54   0.000   0.200   0.000    0.00
   3.950    9.29   -3.53   -0.72   0.000   0.200   0.000    0.00
   4.000    8.98   -5.50   -1.57   0.000   0.200   0.000    0.00
   4.050    9.06   -2.13   -1.68   0.000   0.200   0.000    0.00
   4.100    8.73    2.61   -1.62   0.000   0.200   0.000    0.00
   4.150    9.02    3.32   -1.45   0.000   0.200   0.000    0.00
   4.200    9.96    1.43   -1.16   0.000   0.200   0.000    0.00
   4.250    9.22    7.17   -1.56   0.000   0.200   0.000    0.00
   4.300    9.36    2.29   -1.12   0.000   0.200   0.000    0.00
   4.350    8.84    6.19   -1.62   0.000   0.200   0.000    0.00
   4.400    8.80    7.67   -1.08   0.000   0.200   0.000    0.00
   4.450    9.01    7.80   -1.07   0.000   0.200   0.000    0.00
   4.500    8.19   15.65   -0.61   0.000   0.200   0.000    0.00
   4.550    7.97   11.83   -0.53   0.000   0.200   0.000    0.00
   4.600    7.74   12.71   -0.88   0.000   0.200   0.000    0.00
   4.650    7.96   16.37   -0.73   0.000   0.200   0.000    0.00
   4.700    8.57   13.67   -0.98   0.000   0.200   0.000    0.00
   4.750    8.96   13.46   -0.66   0.000   0.200   0.000    0.00
   4.800    9.18   12.87   -0.09   0.000   0.200   0.000    0.00
   4.850    9.40    8.29   -0.49   0.000   0.200   0.000    0.00
   4.900    9.45    3.30   -0.85   0.000   0.200   0.000    0.00
   4.950    9.49    1.84   -0.55   0.000   0.200   0.000    0.00
   5.000    9.30    2.54   -1.13   0.000   0.200   0.000    0.00
   5.050    8.82    6.07   -0.68   0.000   0.200   0.000    0.00
   5.100    8.64    8.74   -0.18   0.000   0.200   0.000    0.00
   5.150    9.30    4.92   -0.72   0.000   0.200   0.000    0.00
   5.200    8.62    6.77   -0.80   0.000   0.200   0.000    0.00
   5.250    8.70    3.82    0.18   0.000   0.200   0.000    0.00
   5.300    8.73    1.48    0.96   0.000   0.200   0.000    0.00
   5.350    9.18    5.50    0.16   0.000   0.200   0.000    0.00
   5.400    9.41    7.23   -0.64   0.000   0.200   0.000    0.00
   5.450    9.18    7.90   -0.10   0.000   0.200   0.000    0.00
   5.500    9.50   11.23    0.05   0.000   0.200   0.000    0.00
   5.550    9.18   12.37    0.19   0.000   0.200   0.000    0.00
   5.600    8.73   16.09   -0.13   0.000   0.200   0.000    0.00
   5.650    8.82   18.43   -0.44   0.000   0.200   0.000    0.00
   5.700    8.39   17.43   -0.51   0.000   0.200   0.000    0.00
   5.750    7.81   13.18   -1.31   0.000   0.200   0.000    0.00
   5.800    7.05   21.96   -1.28   0.000   0.200   0.000    0.00
   5.850    7.72   24.40   -1.60   0.000   0.200   0.000    0.00
   5.900    7.50   23.45   -2.24   0.000   0.200   0.000    0.00
   5.950    7.87   20.78   -2.37   0.000   0.200   0.000    0.00
   6.000    8.81   20.17   -3.13   0.000   0.200   0.000    0.00
   6.050    8.81   12.95   -3.59   0.000   0.200   0.000    0.00
   6.100    8.89   15.13   -3.29   0.000   0.200   0.000    0.00
   6.150    9.26   22.76   -2.87   0.000   0.200   0.000    0.00
   6.200    9.54   24.76   -1.84   0.000   0.200   0.000    0.00
   6.250    9.85   26.51   -2.47   0.000   0.200   0.000    0.00
   6.300    9.88   25.04   -2.10   0.000   0.200   0.000    0.00
   6.350    9.13   26.10   -2.17   0.000   0.200   0.000    0.00
   6.400    8.28   30.94   -1.12   0.000   0.200   0.000    0.00
   6.450    8.33   34.17   -0.56   0.000   0.200   0.000    0.00
   6.500    9.10   30.26   -0.93   0.000   0.200   0.000    0.00
   6.550    9.61   29.11   -0.63   0.000   0.200   0.000    0.00
   6.600    9.84   29.94   -1.08   0.000   0.200   0.000    0.00
   6.650    9.91   28.84   -1.92   0.000   0.200   0.000    0.00
   6.700    9.70   31.99   -1.50   0.000   0.200   0.000    0.00
   6.750    9.92   30.92   -1.26   0.000   0.200   0.000    0.00
   6.800    9.95   26.74   -1.81   0.000   0.200   0.000    0.00
   6.850   10.25   28.49   -2.07   0.000   0.200   0.000    0.00
   6.900   10.53   30.09   -2.12   0.000   0.200   0.000    0.00
   6.950   10.63   31.21   -1.90   0.000   0.200   0.000    0.00
   7.000   10.37   34.06   -2.09   0.000   0.200   0.000    0.00
   7.050   10.37   32.05   -2.54   0.000   0.200   0.000    0.00
   7.100    9.84   30.06   -2.02   0.000   0.200   0.000    0.00
   7.150    9.87   26.76   -1.53   0.000   0.200   0.000    0.00
   7.200    9.63   25.72   -1.74   0.000   0.200   0.000    0.00
   7.250    9.94   23.81   -1.60   0.000   0.200   0.000    0.00
   7.300   10.19   25.23   -1.75   0.000   0.200   0.000    0.00
   7.350   10.86   26.82   -1.05   0.000   0.200   0.000    0.00
   7.400   10.48   29.04   -1.27   0.000   0.200   0.000    0.00
   7.450   10.38   29.34   -1.80   0.000   0.200   0.000    0.00
   7.500   10.93   28.08   -1.39   0.000   0.200   0.000    0.00
   7.550   10.20   24.67   -1.04   0.000   0.200   0.000    0.00
   7.600   10.07   23.56   -1.33   0.000   0.200   0.000    0.00
   7.650    9.88   23.32   -1.55   0.000   0.200   0.000    0.00
   7.700    9.99   23.09   -1.32   0.000   0.200   0.000    0.00
   7.750    9.74   23.68   -0.72   0.000   0.200   0.000    0.00
   7.800    9.76   23.01   -1.11   0.000   0.200   0.000    0.00
   7.850   10.55   26.36   -1.27   0.000   0.200   0.000    0.00
   7.900   10.78   25.42   -1.12   0.000   0.200   0.000    0.00
   7.950   10.11   26.26   -0.54   0.000   0.200   0.000    0.00
   8.000   10.04   27.15   -1.17   0.000   0.200   0.000    0.00
   8.050   10.16   22.17   -1.85   0.000   0.200   0.000    0.00
   8.100   10.27   19.08   -2.05   0.000   0.200   0.000    0.00
   8.150    9.94   19.48   -1.22   0.000   0.200   0.000    0.00
   8.200   10.00   16.55   -1.62   0.000   0.200   0.000    0.00
   8.250   10.26   14.31   -1.30   0.000   0.200   0.000    0.00
   8.300   10.07   11.77   -1.17   0.000   0.200   0.000    0.00
   8.350   10.62    6.14   -1.15   0.000   0.200   0.000    0.00
   8.400   10.09   10.38   -1.22   0.000   0.200   0.000    0.00
   8.450    9.72   12.31   -1.19   0.000   0.200   0.000    0.00
   8.500    9.69    9.27   -1.14   0.000   0.200   0.000    0.00
   8.550    9.63   12.13   -1.63   0.000   0.200   0.000    0.00
   8.600    9.58    7.71   -1.40   0.000   0.200   0.000    0.00
   8.650   10.25    3.58   -1.53   0.000   0.200   0.000    0.00
   8.700   10.12    3.57   -1.11   0.000   0.200   0.000    0.00
   8.750   10.74    3.52   -1.35   0.000   0.200   0.000    0.00
   8.800   10.49    2.14   -1.28   0.000   0.200   0.000    0.00
   8.850   11.07    5.28   -1.36   0.000   0.200   0.000    0.00
   8.900   10.81   11.54   -1.03   0.000   0.200   0.000    0.00
   8.950   10.86    8.45   -0.52   0.000   0.200   0.000    0.00
   9.000   11.77   12.12   -0.51   0.000   0.200   0.000    0.00
   9.050   12.09    7.34   -0.62   0.000   0.200   0.000    0.00
   9.100   11.84    7.10   -1.10   0.000   0.200   0.000    0.00
   9.150   11.41    8.83   -1.24   0.000   0.200   0.000    0.00
   9.200   11.52    5.11   -1.14   0.000   0.200   0.000    0.00
   9.250   12.16    4.82   -1.29   0.000   0.200   0.000    0.00
   9.300   12.05    4.31   -0.61   0.000   0.200   0.000    0.00
   9.350   12.38    4.08   -0.76   0.000   0.200   0.000    0.00
   9.400   12.34    1.03   -0.72   0.000   0.200   0.000    0.00
   9.450   11.88    1.07   -0.18   0.000   0.200   0.000    0.00
   9.500   12.20   -1.93    0.33   0.000   0.200   0.000    0.00
   9.550   12.43    0.74    0.55   0.000   0.200   0.000    0.00
   9.600   11.06    4.57    0.48   0.000   0.200   0.000    0.00
   9.650   10.38    6.32    1.14   0.000   0.200   0.000    0.00
   9.700   10.86    7.28    1.17   0.000   0.200   0.000    0.00
   9.750   10.58   11.97    0.88   0.000   0.200   0.000    0.00
   9.800   10.67   11.21    1.23   0.000   0.200   0.000    0.00
   9.850   10.45   11.61    0.38   0.000   0.200   0.000    0.00
   9.900   10.04   12.11   -0.24   0.000   0.200   0.000    0.00
   9.950   10.59   13.23    0.13   0.000   0.200   0.000    0.00
  10.000   10.26    9.98    0.44   0.000   0.200   0.000    0.00
  10.050   10.21    6.38   -0.15   0.000   0.200   0.000    0.00
  10.100   10.19    4.83   -1.01   0.000   0.200   0.000    0.00
  10.150   10.23    0.50   -0.24   0.000   0.200   0.000    0.00
  10.200   10.40    1.80    0.39   0.000   0.200   0.000    0.00
  10.250   10.47    1.59    0.55   0.000   0.200   0.000    0.00
  10.300   10.36    0.61    0.66   0.000   0.200   0.000    0.00
  10.350    9.90   -2.08    1.17   0.000   0.200   0.000    0.00
  10.400    8.67    0.39    0.54   0.000   0.200   0.000    0.00
  10.450    9.87    1.95   -0.26   0.000   0.200   0.000    0.00
  10.500    9.34    5.44    0.15   0.000   0.200   0.000    0.00
  10.550    9.68    4.35   -0.45   0.000   0.200   0.000    0.00
  10.600   10.05    3.02   -0.30   0.000   0.200   0.000    0.00
  10.650   10.02    5.17   -0.83   0.000   0.200   0.000    0.00
  10.700   10.34    8.63   -0.72   0.000   0.200   0.000    0.00
  10.750   10.39   10.25   -0.55   0.000   0.200   0.000    0.00
  10.800   10.04   11.91   -0.92   0.000   0.200   0.000    0.00
  10.850    9.08    8.72   -1.52   0.000   0.200   0.000    0.00
  10.900    8.94    0.16   -2.09   0.000   0.200   0.000    0.00
  10.950    8.96   -1.75   -1.64   0.000   0.200   0.000    0.00
  11.000    9.45   -2.77   -1.82   0.000   0.200   0.000    0.00
  11.050   10.04   -5.14   -1.79   0.000   0.200   0.000    0.00
  11.100   10.32  -12.04   -2.87   0.000   0.200   0.000    0.00
  11.150   10.20  -10.37   -2.26   0.000   0.200   0.000    0.00
  11.200   10.10   -7.63   -1.75   0.000   0.200   0.000    0.00
  11.250   10.30   -7.45   -2.76   0.000   0.200   0.000    0.00
  11.300   10.95   -6.42   -3.22   0.000   0.200   0.000    0.00
  11.350   11.28   -5.08   -3.07   0.000   0.200   0.000    0.00
  11.400   11.68   -7.32   -2.74   0.000   0.200   0.000    0.00
  11.450   12.02   -7.35   -3.14   0.000   0.200   0.000    0.00
  11.500   11.99   -7.82   -2.91   0.000   0.200   0.000    0.00
  11.550   11.50   -7.96   -2.46   0.000   0.200   0.000    0.00
  11.600   11.35   -3.44   -2.93   0.000   0.200   0.000    0.00
  11.650   11.63   -0.54   -2.58   0.000   0.200   0.000    0.00
  11.700   11.56    0.23   -1.70   0.000   0.200   0.000    0.00
  11.750   11.98    4.57   -2.20   0.000   0.200   0.000    0.00
  11.800   11.88    6.94   -2.07   0.000   0.200   0.000    0.00
  11.850   12.27   10.41   -2.90   0.000   0.200   0.000    0.00
  11.900   11.79    9.11   -2.84   0.000   0.200   0.000    0.00
  11.950   11.47    9.04   -2.42   0.000   0.200   0.000    0.00
  12.000   11.78   11.09   -1.68   0.000   0.200   0.000    0.00
  12.050   11.74   14.75   -1.97   0.000   0.200   0.000    0.00
  12.100   11.86   11.27   -1.69   0.000   0.200   0.000    0.00
  12.150   12.52   11.23   -2.33   0.000   0.200   0.000    0.00
  12.200   12.67   11.11   -1.98   0.000   0.200   0.000    0.00
  12.250   12.22   12.20   -2.69   0.000   0.200   0.000    0.00
  12.300   11.85   10.80   -2.04   0.000   0.200   0.000    0.00
  12.350   11.82   11.18   -1.98   0.000   0.200   0.000    0.00
  12.400   12.11   15.61   -1.70   0.000   0.200   0.000    0.00
  12.450   12.21   16.46   -0.97   0.000   0.200   0.000    0.00
  12.500   12.28   17.94   -1.18   0.000   0.200   0.000    0.00
  12.550   12.00   12.63   -1.86   0.000   0.200   0.000    0.00
  12.600   11.82   16.53   -1.41   0.000   0.200   0.000    0.00
  12.650   11.93   19.11   -1.72   0.000   0.200   0.000    0.00
  12.700   11.87   21.93   -1.18   0.000   0.200   0.000    0.00
  12.750   11.95   21.97   -0.67   0.000   0.200   0.000    0.00
  12.800   11.56   22.64   -0.25   0.000   0.200   0.000    0.00
  12.850   11.54   23.00   -0.38   0.000   0.200   0.000    0.00
  12.900   11.59   23.70   -1.38   0.000   0.200   0.000    0.00
  12.950   11.81   20.24   -1.44   0.000   0.200   0.000    0.00
  13.000   11.53   17.88   -1.40   0.000   0.200   0.000    0.00
  13.050   11.46   19.02   -1.95   0.000   0.200   0.000    0.00
  13.100   11.86   15.08   -1.18   0.000   0.200   0.000    0.00
  13.150   12.07   13.72   -1.75   0.000   0.200   0.000    0.00
  13.200   11.57   18.11   -1.51   0.000   0.200   0.000    0.00
  13.250   11.98   17.59   -1.57   0.000   0.200   0.000    0.00
  13.300   12.20   19.37   -0.61   0.000   0.200   0.000    0.00
  13.350   11.97   19.56   -0.07   0.000   0.200   0.000    0.00
  13.400   11.96   17.12    0.04   0.000   0.200   0.000    0.00
  13.450   11.33   18.61   -0.68   0.000   0.200   0.000    0.00
  13.500   11.09   22.06   -0.29   0.000   0.200   0.000    0.00
  13.550   11.77   20.81    0.39   0.000   0.200   0.000    0.00
  13.600   12.37   19.33    0.88   0.000   0.200   0.000    0.00
  13.650   12.61   22.01    0.79   0.000   0.200   0.000    0.00
  13.700   12.82   20.94    0.30   0.000   0.200   0.000    0.00
  13.750   12.78   21.19    0.70   0.000   0.200   0.000    0.00
  13.800   13.00   20.39    1.02   0.000   0.200   0.000    0.00
  13.850   13.33   19.40    0.30   0.000   0.200   0.000    0.00
  13.900   13.31   19.37    1.07   0.000   0.200   0.000    0.00
  13.950   13.19   20.37    0.52   0.000   0.200   0.000    0.00
  14.000   12.98   21.54    0.07   0.000   0.200   0.000    0.00
  14.050   12.73   22.91    0.51   0.000   0.200   0.000    0.00
  14.100   12.85   21.01    0.78   0.000   0.200   0.000    0.00
  14.150   13.17   17.96    0.56   0.000   0.200   0.000    0.00
  14.200   12.84   17.69    0.50   0.000   0.200   0.000    0.00
  14.250   12.30   16.25    0.75   0.000   0.200   0.000    0.00
  14.300   13.09   17.51    1.23   0.000   0.200   0.000    0.00
  14.350   12.95   16.19    2.12   0.000   0.200   0.000    0.00
  14.400   13.64   21.59    1.29   0.000   0.200   0.000    0.00
  14.450   13.90   21.75    1.01   0.000   0.200   0.000    0.00
  14.500   14.32   21.73    0.67   0.000   0.200   0.000    0.00
  14.550   13.89   19.34    1.06   0.000   0.200   0.000    0.00
  14.600   13.34   17.43    1.39   0.000   0.200   0.000    0.00
  14.650   13.26   17.02    1.24   0.000   0.200   0.000    0.00
  14.700   13.87   17.44    1.12   0.000   0.200   0.000    0.00
  14.750   13.99   17.36    1.75   0.000   0.200   0.000    0.00
  14.800   13.88   17.43    1.87   0.000   0.200   0.000    0.00
  14.850   14.42   15.58    2.50   0.000   0.200   0.000    0.00
  14.900   14.65   13.96    2.52   0.000   0.200   0.000    0.00
  14.950   14.43   16.26    2.56   0.000   0.200   0.000    0.00
  15.000   13.82   12.56    2.26   0.000   0.200   0.000    0.00
  15.050   14.23   15.61    2.22   0.000   0.200   0.000    0.00
  15.100   14.66   16.11    1.23   0.000   0.200   0.000    0.00
  15.150   15.33   19.31    0.88   0.000   0.200   0.000    0.00
  15.200   14.75   18.97    0.79   0.000   0.200   0.000    0.00
  15.250   13.94   17.06    0.57   0.000   0.200   0.000    0.00
  15.300   13.77   16.98    0.46   0.000   0.200   0.000    0.00
  15.350   13.48   15.39   -0.15   0.000   0.200   0.000    0.00
  15.400   13.60   15.01   -0.57   0.000   0.200   0.000    0.00
  15.450   13.62   13.54   -0.63   0.000   0.200   0.000    0.00
  15.500   13.74   14.45   -0.69   0.000   0.200   0.000    0.00
  15.550   14.49   14.35   -0.09   0.000   0.200   0.000    0.00
  15.600   14.69   15.44    0.22   0.000   0.200   0.000    0.00
  15.650   15.56   16.92    0.74   0.000   0.200   0.000    0.00
  15.700   15.17   17.55    0.57   0.000   0.200   0.000    0.00
  15.750   14.83   17.60    0.25   0.000   0.200   0.000    0.00
  15.800   15.27   15.54    0.04   0.000   0.200   0.000    0.00
  15.850   15.86   16.78   -0.41   0.000   0.200   0.000    0.00
  15.900   15.00   15.28   -0.34   0.000   0.200   0.000    0.00
  15.950   15.06   14.74    0.22   0.000   0.200   0.000    0.00
  16.000   15.06   12.26   -0.36   0.000   0.200   0.000    0.00
  16.050   15.36   10.37   -0.56   0.000   0.200   0.000    0.00
  16.100   15.08   12.27   -0.43   0.000   0.200   0.000    0.00
  16.150   15.10   15.98    0.68   0.000   0.200   0.000    0.00
  16.200   14.95   15.91    1.07   0.000   0.200   0.000    0.00
  16.250   14.97   19.20    0.87   0.000   0.200   0.000    0.00
  16.300   14.99   20.71    0.44   0.000   0.200   0.000    0.00
  16.350   15.28   18.34    1.14   0.000   0.200   0.000    0.00
  16.400   15.10   18.54    0.50   0.000   0.200   0.000    0.00
  16.450   16.08   19.66   -0.17   0.000   0.200   0.000    0.00
  16.500   16.47   17.02   -0.77   0.000   0.200   0.000    0.00
  16.550   16.28   17.00   -0.47   0.000   0.200   0.000    0.00
  16.600   15.87   20.03   -0.59   0.000   0.200   0.000    0.00
  16.650   16.08   21.98   -0.84   0.000   0.200   0.000    0.00
  16.700   15.87   21.79   -0.33   0.000   0.200   0.000    0.00
  16.750   15.78   21.84   -1.08   0.000   0.200   0.000    0.00
  16.800   15.69   20.89   -1.17   0.000   0.200   0.000    0.00
  16.850   16.40   20.96   -1.61   0.000   0.200   0.000    0.00
  16.900   16.22   20.56   -1.55   0.000   0.200   0.000    0.00
  16.950   16.02   19.33   -1.20   0.000   0.200   0.000    0.00
  17.000   15.60   20.80   -1.62   0.000   0.200   0.000    0.00
  17.050   15.27   19.89   -1.39   0.000   0.200   0.000    0.00
  17.100   15.84   20.13   -0.61   0.000   0.200   0.000    0.00
  17.150   15.34   21.12   -0.30   0.000   0.200   0.000    0.00
  17.200   15.02   20.49   -0.27   0.000   0.200   0.000    0.00
  17.250   15.58   18.98   -0.61   0.000   0.200   0.000    0.00
  17.300   15.29   19.76   -1.29   0.000   0.200   0.000    0.00
  17.350   15.08   19.55   -0.62   0.000   0.200   0.000    0.00
  17.400   15.78   20.26   -0.51   0.000   0.200   0.000    0.00
  17.450   16.06   21.32   -0.14   0.000   0.200   0.000    0.00
  17.500   15.62   18.31   -0.04   0.000   0.200   0.000    0.00
  17.550   16.11   19.29    0.05   0.000   0.200   0.000    0.00
  17.600   15.81   18.59    0.58   0.000   0.200   0.000    0.00
  17.650   16.25   17.33    0.10   0.000   0.200   0.000    0.00
  17.700   15.55   16.82   -0.42   0.000   0.200   0.000    0.00
  17.750   15.78   17.66   -0.77   0.000   0.200   0.000    0.00
  17.800   15.94   16.44   -1.58   0.000   0.200   0.000    0.00
  17.850   16.10   15.29   -1.54   0.000   0.200   0.000    0.00
  17.900   16.00   12.53   -1.79   0.000   0.200   0.000    0.00
  17.950   15.82   14.73   -2.02   0.000   0.200   0.000    0.00
  18.000   15.39   13.30   -1.85   0.000   0.200   0.000    0.00
  18.050   15.99   12.20   -1.42   0.000   0.200   0.000    0.00
  18.100   16.28   12.99   -1.31   0.000   0.200   0.000    0.00
  18.150   16.01   12.71   -1.75   0.000   0.200   0.000    0.00
  18.200   15.28   12.48   -2.25   0.000   0.200   0.000    0.00
  18.250   14.77   13.27   -2.50   0.000   0.200   0.000    0.00
  18.300   15.14   14.94   -2.14   0.000   0.200   0.000    0.00
  18.350   15.07   12.44   -1.74   0.000   0.200   0.000    0.00
  18.400   14.90   14.34   -2.04   0.000   0.200   0.000    0.00
  18.450   14.56   13.61   -1.44   0.000   0.200   0.000    0.00
  18.500   14.47   13.31   -0.76   0.000   0.200   0.000    0.00
  18.550   14.40   11.52   -1.95   0.000   0.200   0.000    0.00
  18.600   13.75   10.86   -1.96   0.000   0.200   0.000    0.00
  18.650   14.35    9.55   -2.44   0.000   0.200   0.000    0.00
  18.700   14.07   12.42   -2.49   0.000   0.200   0.000    0.00
  18.750   14.80   11.70   -2.53   0.000   0.200   0.000    0.00
  18.800   14.73   13.87   -1.87   0.000   0.200   0.000    0.00
  18.850   14.42   13.82   -1.66   0.000   0.200   0.000    0.00
  18.900   14.48   13.83   -1.26   0.000   0.200   0.000    0.00
  18.950   15.27   14.52   -1.97   0.000   0.200   0.000    0.00
  19.000   15.20   14.58   -1.35   0.000   0.200   0.000    0.00
  19.050   14.65   15.94   -0.82   0.000   0.200   0.000    0.00
  19.100   15.29   19.17    0.01   0.000   0.200   0.000    0.00
  19.150   15.15   17.31   -0.43   0.000   0.200   0.000    0.00
  19.200   15.83   15.50   -0.40   0.000   0.200   0.000    0.00
  19.250   15.54   14.38   -0.51   0.000   0.200   0.000    0.00
  19.300   15.93   15.12    0.04   0.000   0.200   0.000    0.00
  19.350   15.19   16.91    0.12   0.000   0.200   0.000    0.00
  19.400   14.62   16.35   -0.25   0.000   0.200   0.000    0.00
  19.450   14.87   18.17   -0.02   0.000   0.200   0.000    0.00
  19.500   14.45   16.46   -0.40   0.000   0.200   0.000    0.00
  19.550   14.34   16.60   -0.72   0.000   0.200   0.000    0.00
  19.600   13.90   19.70   -1.09   0.000   0.200   0.000    0.00
  19.650   14.11   19.98   -0.90   0.000   0.200   0.000    0.00
  19.700   13.31   18.96   -1.37   0.000   0.200   0.000    0.00
  19.750   13.26   18.96   -1.68   0.000   0.200   0.000    0.00
  19.800   12.72   18.99   -1.61   0.000   0.200   0.000    0.00
  19.850   12.29   19.07   -1.93   0.000   0.200   0.000    0.00
  19.900   12.73   19.43   -1.56   0.000   0.200   0.000    0.00
  19.950   13.00   23.49   -1.75   0.000   0.200   0.000    0.00
  20.000   13.18   19.91   -1.77   0.000   0.200   0.000    0.00
  20.050   13.10   17.03   -1.55   0.000   0.200   0.000    0.00
  20.100   13.53   19.76   -1.42   0.000   0.200   0.000    0.00
  20.150   13.24   20.80   -1.73   0.000   0.200   0.000    0.00
  20.200   13.09   20.01   -1.29   0.000   0.200   0.000    0.00
  20.250   13.24   18.60   -1.40   0.000   0.200   0.000    0.00
  20.300   14.58   18.24   -0.92   0.000   0.200   0.000    0.00
  20.350   14.26   16.80   -1.26   0.000   0.200   0.000    0.00
  20.400   13.65   19.79   -1.69   0.000   0.200   0.000    0.00
  20.450   14.38   18.44   -1.17   0.000   0.200   0.000    0.00
  20.500   15.03   17.24   -0.55   0.000   0.200   0.000    0.00
  20.550   14.79   16.96   -0.97   0.000   0.200   0.000    0.00
  20.600   15.15   18.48   -1.34   0.000   0.200   0.000    0.00
  20.650   14.47   21.49   -1.40   0.000   0.200   0.000    0.00
  20.700   14.42   23.44   -1.46   0.000   0.200   0.000    0.00
  20.750   14.02   22.53   -1.59   0.000   0.200   0.000    0.00
  20.800   14.18   24.83   -1.45   0.000   0.200   0.000    0.00
  20.850   14.08   25.40   -0.21   0.000   0.200   0.000    0.00
  20.900   14.12   28.99   -0.20   0.000   0.200   0.000    0.00
  20.950   14.00   31.14    0.50   0.000   0.200   0.000    0.00
  21.000   13.36   32.41   -0.16   0.000   0.200   0.000    0.00
  21.050   13.06   32.30   -0.34   0.000   0.200   0.000    0.00
  21.100   13.36   32.38   -0.31   0.000   0.200   0.000    0.00
  21.150   14.16   30.03    0.43   0.000   0.200   0.000    0.00
  21.200   13.78   28.84    1.15   0.000   0.200   0.000    0.00
  21.250   13.91   27.69   -0.10   0.000   0.200   0.000    0.00
  21.300   13.54   21.88   -0.37   0.000   0.200   0.000    0.00
  21.350   13.85   24.68   -1.28   0.000   0.200   0.000    0.00
  21.400   13.38   27.55   -0.87   0.000   0.200   0.000    0.00
  21.450   13.52   28.60   -0.49   0.000   0.200   0.000    0.00
  21.500   13.02   24.97   -0.21   0.000   0.200   0.000    0.00
  21.550   12.68   22.93    0.24   0.000   0.200   0.000    0.00
  21.600   11.92   21.06    1.11   0.000   0.200   0.000    0.00
  21.650   12.05   23.00    1.06   0.000   0.200   0.000    0.00
  21.700   12.09   17.78    1.54   0.000   0.200   0.000    0.00
  21.750   12.21   16.46    1.48   0.000   0.200   0.000    0.00
  21.800   11.91   16.46    0.41   0.000   0.200   0.000    0.00
  21.850   11.53   15.95    0.32   0.000   0.200   0.000    0.00
  21.900   11.99   16.51    0.18   0.000   0.200   0.000    0.00
  21.950   11.87   12.04    0.14   0.000   0.200   0.000    0.00
  22.000   12.31   12.38    0.42   0.000   0.200   0.000    0.00
  22.050   12.32   13.41    0.41   0.000   0.200   0.000    0.00
  22.100   12.48   12.63    0.03   0.000   0.200   0.000    0.00
  22.150   12.59   11.80   -1.17   0.000   0.200   0.000    0.00
  22.200   11.96   12.92   -0.88   0.000   0.200   0.000    0.00
  22.250   11.91   14.96   -1.37   0.000   0.200   0.000    0.00
  22.300   11.61   17.08   -0.68   0.000   0.200   0.000    0.00
  22.350   11.78   17.06   -0.45   0.000   0.200   0.000    0.00