! This hub-height wind-speed file was generated by TurbSim (v1.06.00, 21-Sep-2012) on 03-Feb-2018 at 23:30:19.
!
! The requested statistics for this data were:
!    Mean Total Wind Speed =   15.000 m/s
!    Turbulence Intensity  =   22.430%
!
!   Time  HorSpd  WndDir  VerSpd  HorShr  VerShr  LnVShr  GstSpd
!  (sec)   (m/s)   (deg)   (m/s)     (-)     (-)     (-)   (m/s)
   0.000   14.33   -8.19    0.83   0.000   0.200   0.000    0.00
   0.050   15.08   -6.84    1.03   0.000   0.200   0.000    0.00
   0.100   14.98   -7.76    0.85   0.000   0.200   0.000    0.00
   0.150   14.41  -10.11    1.53   0.000   0.200   0.000    0.00
   0.200   14.09   -8.53    2.20   0.000   0.200   0.000    0.00
   0.250   14.59   -7.07    3.42   0.000   0.200   0.000    0.00
   0.300   13.96   -8.35    3.06   0.000   0.200   0.000    0.00
   0.350   14.33   -1.60    1.30   0.000   0.200   0.000    0.00
   0.400   14.18   -0.31    0.75   0.000   0.200   0.000    0.00
   0.450   14.04    0.08    1.34   0.000   0.200   0.000    0.00
   0.500   13.78   -3.02    1.67   0.000   0.200   0.000    0.00
   0.550   13.27   -0.54    1.74   0.000   0.200   0.000    0.00
   0.600   13.10    0.64    1.85   0.000   0.200   0.000    0.00
   0.650   13.28   -0.66    1.97   0.000   0.200   0.000    0.00
   0.700   14.02    3.01    1.77   0.000   0.200   0.000    0.00
   0.750   13.74   -3.86    2.09   0.000   0.200   0.000    0.00
   0.800   14.03    1.41    0.77   0.000   0.200   0.000    0.00
   0.850   14.36    3.40    0.48   0.000   0.200   0.000    0.00
   0.900   14.87    4.31   -0.29   0.000   0.200   0.000    0.00
   0.950   13.75    1.23   -0.61   0.000   0.200   0.000    0.00
   1.000   13.54    4.87   -0.85   0.000   0.200   0.000    0.00
   1.050   13.69    6.50   -0.57   0.000   0.200   0.000    0.00
   1.100   14.93    5.39   -0.47   0.000   0.200   0.000    0.00
   1.150   15.49    5.35   -0.43   0.000   0.200   0.000    0.00
   1.200   16.20    6.89   -0.65   0.000   0.200   0.000    0.00
   1.250   15.84    6.65   -0.03   0.000   0.200   0.000    0.00
   1.300   15.86    3.65   -0.24   0.000   0.200   0.000    0.00
   1.350   15.79    1.18   -1.85   0.000   0.200   0.000    0.00
   1.400   16.08    0.55   -1.54   0.000   0.200   0.000    0.00
   1.450   15.82    1.31   -0.30   0.000   0.200   0.000    0.00
   1.500   16.07    2.92   -0.07   0.000   0.200   0.000    0.00
   1.550   16.01    3.25   -0.35   0.000   0.200   0.000    0.00
   1.600   15.89    6.22   -0.37   0.000   0.200   0.000    0.00
   1.650   16.06    7.29   -0.91   0.000   0.200   0.000    0.00
   1.700   16.82    7.19    0.95   0.000   0.200   0.000    0.00
   1.750   17.58    8.92    0.41   0.000   0.200   0.000    0.00
   1.800   17.58    9.28    0.41   0.000   0.200   0.000    0.00
   1.850   17.82    8.47   -0.49   0.000   0.200   0.000    0.00
   1.900   19.37    7.05   -0.32   0.000   0.200   0.000    0.00
   1.950   18.79    6.97   -1.23   0.000   0.200   0.000    0.00
   2.000   18.57    5.49   -0.13   0.000   0.200   0.000    0.00
   2.050   18.92    7.49   -0.55   0.000   0.200   0.000    0.00
   2.100   18.93    6.40   -0.11   0.000   0.200   0.000    0.00
   2.150   18.38    2.75   -0.81   0.000   0.200   0.000    0.00
   2.200   17.83    1.05   -0.83   0.000   0.200   0.000    0.00
   2.250   17.51    2.66   -0.58   0.000   0.200   0.000    0.00
   2.300   17.43    1.43   -0.57   0.000   0.200   0.000    0.00
   2.350   17.14    3.09   -0.51   0.000   0.200   0.000    0.00
   2.400   17.09    1.06    0.42   0.000   0.200   0.000    0.00
   2.450   16.58    1.33   -0.36   0.000   0.200   0.000    0.00
   2.500   16.87   -1.66   -0.82   0.000   0.200   0.000    0.00
   2.550   16.16   -1.63   -0.57   0.000   0.200   0.000    0.00
   2.600   16.54   -1.85   -0.21   0.000   0.200   0.000    0.00
   2.650   16.38   -3.37    0.09   0.000   0.200   0.000    0.00
   2.700   16.92   -5.50    0.25   0.000   0.200   0.000    0.00
   2.750   17.96   -2.23    0.32   0.000   0.200   0.000    0.00
   2.800   17.89   -3.38   -0.09   0.000   0.200   0.000    0.00
   2.850   17.83   -2.89    0.48   0.000   0.200   0.000    0.00
   2.900   17.82   -2.49   -0.20   0.000   0.200   0.000    0.00
   2.950   18.68   -1.24   -0.28   0.000   0.200   0.000    0.00
   3.000   18.75    0.20   -0.45   0.000   0.200   0.000    0.00
   3.050   17.91    1.24   -0.12   0.000   0.200   0.000    0.00
   3.100   17.65   -1.13    0.20   0.000   0.200   0.000    0.00
   3.150   17.94   -2.48    0.18   0.000   0.200   0.000    0.00
   3.200   18.53   -2.26   -0.52   0.000   0.200   0.000    0.00
   3.250   17.73   -4.41   -0.23   0.000   0.200   0.000    0.00
   3.300   17.64   -1.95   -0.19   0.000   0.200   0.000    0.00
   3.350   17.59   -4.28   -0.33   0.000   0.200   0.000    0.00
   3.400   16.64   -6.42    0.24   0.000   0.200   0.000    0.00
   3.450   17.11   -6.15    0.44   0.000   0.200   0.000    0.00
   3.500   17.37   -7.26    0.15   0.000   0.200   0.000    0.00
   3.550   17.74   -9.82    0.54   0.000   0.200   0.000    0.00
   3.600   18.01   -5.30    1.04   0.000   0.200   0.000    0.00
   3.650   18.25   -2.19    0.67   0.000   0.200   0.000    0.00
   3.700   18.76   -6.90    1.63   0.000   0.200   0.000    0.00
   3.750   18.33   -3.02    2.43   0.000   0.200   0.000    0.00
   3.800   18.15   -1.74    1.44   0.000   0.200   0.000    0.00
   3.850   17.66    1.62    1.50   0.000   0.200   0.000    0.00
   3.900   17.56    3.75    0.16   0.000   0.200   0.000    0.00
   3.950   16.45    6.34   -0.13   0.000   0.200   0.000    0.00
   4.000   16.62    2.93   -0.15   0.000   0.200   0.000    0.00
   4.050   15.84    1.94   -0.45   0.000   0.200   0.000    0.00
   4.100   16.00    4.47   -1.06   0.000   0.200   0.000    0.00
   4.150   16.05    7.17   -1.80   0.000   0.200   0.000    0.00
   4.200   15.86    8.65   -2.42   0.000   0.200   0.000    0.00
   4.250   18.03   10.30   -1.14   0.000   0.200   0.000    0.00
   4.300   18.69    9.32   -1.82   0.000   0.200   0.000    0.00
   4.350   18.07    7.84   -1.98   0.000   0.200   0.000    0.00
   4.400   18.37   10.10   -1.17   0.000   0.200   0.000    0.00
   4.450   19.05   11.32   -1.10   0.000   0.200   0.000    0.00
   4.500   19.03   10.33   -1.06   0.000   0.200   0.000    0.00
   4.550   19.41    9.78   -0.31   0.000   0.200   0.000    0.00
   4.600   19.44   10.61    0.42   0.000   0.200   0.000    0.00
   4.650   19.72    7.02   -0.46   0.000   0.200   0.000    0.00
   4.700   19.82    7.72   -0.56   0.000   0.200   0.000    0.00
   4.750   19.95   11.45   -0.13   0.000   0.200   0.000    0.00
   4.800   19.70   11.47    0.17   0.000   0.200   0.000    0.00
   4.850   19.90   11.56    0.57   0.000   0.200   0.000    0.00
   4.900   20.54   12.40    0.29   0.000   0.200   0.000    0.00
   4.950   21.12   12.77    1.17   0.000   0.200   0.000    0.00
   5.000   19.84   10.08    1.35   0.000   0.200   0.000    0.00
   5.050   19.71   11.24    1.61   0.000   0.200   0.000    0.00
   5.100   19.65   12.09    0.47   0.000   0.200   0.000    0.00
   5.150   19.78   10.65    0.24   0.000   0.200   0.000    0.00
   5.200   19.55   12.86    0.22   0.000   0.200   0.000    0.00
   5.250   19.41   10.06    1.57   0.000   0.200   0.000    0.00
   5.300   18.50    6.28    0.92   0.000   0.200   0.000    0.00
   5.350   18.25    4.62   -0.47   0.000   0.200   0.000    0.00
   5.400   18.51    7.12   -0.05   0.000   0.200   0.000    0.00
   5.450   19.60    7.76    0.08   0.000   0.200   0.000    0.00
   5.500   18.32    9.65    0.14   0.000   0.200   0.000    0.00
   5.550   18.16    8.31   -0.53   0.000   0.200   0.000    0.00
   5.600   18.91    6.14   -0.27   0.000   0.200   0.000    0.00
   5.650   19.27    3.72    0.04   0.000   0.200   0.000    0.00
   5.700   19.29    7.09    0.30   0.000   0.200   0.000    0.00
   5.750   18.89    8.28    0.32   0.000   0.200   0.000    0.00
   5.800   17.44    7.58   -1.07   0.000   0.200   0.000    0.00
   5.850   17.39    6.83   -1.32   0.000   0.200   0.000    0.00
   5.900   17.85   10.63   -1.84   0.000   0.200   0.000    0.00
   5.950   18.43    8.12   -2.16   0.000   0.200   0.000    0.00
   6.000   18.91    9.32   -1.81   0.000   0.200   0.000    0.00
   6.050   18.10   12.93   -1.60   0.000   0.200   0.000    0.00
   6.100   18.02   12.11   -1.86   0.000   0.200   0.000    0.00
   6.150   17.68    8.77   -2.99   0.000   0.200   0.000    0.00
   6.200   17.50   13.80   -3.05   0.000   0.200   0.000    0.00
   6.250   15.96   14.41   -2.51   0.000   0.200   0.000    0.00
   6.300   15.96   15.37   -2.22   0.000   0.200   0.000    0.00
   6.350   16.91   16.09   -2.25   0.000   0.200   0.000    0.00
   6.400   17.33   15.58   -2.21   0.000   0.200   0.000    0.00
   6.450   18.18   16.91   -1.75   0.000   0.200   0.000    0.00
   6.500   18.44   17.53   -2.51   0.000   0.200   0.000    0.00
   6.550   18.65   18.47   -1.95   0.000   0.200   0.000    0.00
   6.600   18.95   17.15   -2.66   0.000   0.200   0.000    0.00
   6.650   19.75   15.44   -1.92   0.000   0.200   0.000    0.00
   6.700   19.12   13.92   -1.74   0.000   0.200   0.000    0.00
   6.750   18.86   13.73   -1.05   0.000   0.200   0.000    0.00
   6.800   19.04   12.61   -1.01   0.000   0.200   0.000    0.00
   6.850   19.06    9.32   -1.10   0.000   0.200   0.000    0.00
   6.900   17.98    9.62   -0.53   0.000   0.200   0.000    0.00
   6.950   18.08    7.01   -0.20   0.000   0.200   0.000    0.00
   7.000   17.72    9.16   -0.07   0.000   0.200   0.000    0.00
   7.050   17.42   12.26   -0.02   0.000   0.200   0.000    0.00
   7.100   18.38    8.61   -0.27   0.000   0.200   0.000    0.00
   7.150   19.40   12.44   -0.57   0.000   0.200   0.000    0.00
   7.200   18.76   10.59    0.07   0.000   0.200   0.000    0.00
   7.250   19.06    9.67   -0.27   0.000   0.200   0.000    0.00
   7.300   19.79    8.59   -0.06   0.000   0.200   0.000    0.00
   7.350   19.92    8.98    0.39   0.000   0.200   0.000    0.00
   7.400   19.14   10.04    1.44   0.000   0.200   0.000    0.00
   7.450   19.53    9.34    0.99   0.000   0.200   0.000    0.00
   7.500   20.17   10.90    0.36   0.000   0.200   0.000    0.00
   7.550   20.55    9.18   -0.09   0.000   0.200   0.000    0.00
   7.600   19.92   10.03    0.16   0.000   0.200   0.000    0.00
   7.650   20.40   10.56    0.30   0.000   0.200   0.000    0.00
   7.700   20.62    8.85   -0.88   0.000   0.200   0.000    0.00
   7.750   19.16    8.36   -1.56   0.000   0.200   0.000    0.00
   7.800   18.57    6.66   -1.91   0.000   0.200   0.000    0.00
   7.850   19.56    5.03   -2.29   0.000   0.200   0.000    0.00
   7.900   19.41    6.66   -1.56   0.000   0.200   0.000    0.00
   7.950   18.93    7.70   -1.31   0.000   0.200   0.000    0.00
   8.000   19.20    7.02   -1.25   0.000   0.200   0.000    0.00
   8.050   19.16    8.56   -0.96   0.000   0.200   0.000    0.00
   8.100   18.86    5.06   -0.75   0.000   0.200   0.000    0.00
   8.150   18.80    4.01    0.40   0.000   0.200   0.000    0.00
   8.200   19.51    9.48    0.49   0.000   0.200   0.000    0.00
   8.250   19.51    9.19    0.99   0.000   0.200   0.000    0.00
   8.300   18.66    9.66    0.87   0.000   0.200   0.000    0.00
   8.350   17.88    8.01    1.26   0.000   0.200   0.000    0.00
   8.400   17.80   10.53    1.30   0.000   0.200   0.000    0.00
   8.450   18.71   10.25    0.15   0.000   0.200   0.000    0.00
   8.500   19.53    6.40   -0.20   0.000   0.200   0.000    0.00
   8.550   20.44    3.08    0.32   0.000   0.200   0.000    0.00
   8.600   20.25    5.00    0.49   0.000   0.200   0.000    0.00
   8.650   20.51    8.27   -0.18   0.000   0.200   0.000    0.00
   8.700   20.54    8.03    1.11   0.000   0.200   0.000    0.00
   8.750   19.93    5.38    0.56   0.000   0.200   0.000    0.00
   8.800   19.56    3.78    0.84   0.000   0.200   0.000    0.00
   8.850   19.66    5.25   -0.37   0.000   0.200   0.000    0.00
   8.900   19.53    7.68    0.27   0.000   0.200   0.000    0.00
   8.950   19.38    8.95    0.60   0.000   0.200   0.000    0.00
   9.000   20.14    9.46    1.51   0.000   0.200   0.000    0.00
   9.050   20.59   10.10    0.00   0.000   0.200   0.000    0.00
   9.100   20.76   11.39    0.55   0.000   0.200   0.000    0.00
   9.150   20.49   12.68    1.05   0.000   0.200   0.000    0.00
   9.200   19.97    9.39    0.65   0.000   0.200   0.000    0.00
   9.250   19.93    7.85    1.09   0.000   0.200   0.000    0.00
   9.300   20.57    8.33    0.65   0.000   0.200   0.000    0.00
   9.350   20.16    9.00    0.68   0.000   0.200   0.000    0.00
   9.400   19.86    8.80    0.56   0.000   0.200   0.000    0.00
   9.450   19.19    9.83    0.63   0.000   0.200   0.000    0.00
   9.500   20.13    9.14    1.26   0.000   0.200   0.000    0.00
   9.550   20.20    9.13    1.41   0.000   0.200   0.000    0.00
   9.600   19.69    8.43    0.62   0.000   0.200   0.000    0.00
   9.650   19.94    9.63    0.68   0.000   0.200   0.000    0.00
   9.700   20.78    8.64   -0.17   0.000   0.200   0.000    0.00
   9.750   20.70    8.85   -0.41   0.000   0.200   0.000    0.00
   9.800   21.01    6.54   -0.29   0.000   0.200   0.000    0.00
   9.850   21.24    5.93   -0.64   0.000   0.200   0.000    0.00
   9.900   21.35    6.71   -1.04   0.000   0.200   0.000    0.00
   9.950   21.70    8.02    0.67   0.000   0.200   0.000    0.00
  10.000   20.94    7.70    0.69   0.000   0.200   0.000    0.00
  10.050   20.65    5.81   -0.02   0.000   0.200   0.000    0.00
  10.100   21.10    7.92   -1.30   0.000   0.200   0.000    0.00
  10.150   21.22    6.67   -1.08   0.000   0.200   0.000    0.00
  10.200   21.85    4.14   -0.79   0.000   0.200   0.000    0.00
  10.250   20.68    3.25   -0.42   0.000   0.200   0.000    0.00
  10.300   21.01    0.92   -0.77   0.000   0.200   0.000    0.00
  10.350   20.90    1.43   -1.76   0.000   0.200   0.000    0.00
  10.400   20.86    6.43   -1.63   0.000   0.200   0.000    0.00
  10.450   20.39    4.22   -1.22   0.000   0.200   0.000    0.00
  10.500   20.59    2.93   -0.61   0.000   0.200   0.000    0.00
  10.550   20.24    5.23   -0.02   0.000   0.200   0.000    0.00
  10.600   19.19    4.72   -0.40   0.000   0.200   0.000    0.00
  10.650   19.57    3.94   -0.21   0.000   0.200   0.000    0.00
  10.700   19.49    4.09    0.10   0.000   0.200   0.000    0.00
  10.750   19.85    3.06   -0.74   0.000   0.200   0.000    0.00
  10.800   20.36    2.92   -0.54   0.000   0.200   0.000    0.00
  10.850   20.19    2.64   -0.81   0.000   0.200   0.000    0.00
  10.900   19.76    4.63   -1.35   0.000   0.200   0.000    0.00
  10.950   18.72    5.63   -1.34   0.000   0.200   0.000    0.00
  11.000   18.75    5.50   -1.70   0.000   0.200   0.000    0.00
  11.050   18.10    2.60   -0.60   0.000   0.200   0.000    0.00
  11.100   18.61    4.14   -0.14   0.000   0.200   0.000    0.00
  11.150   19.64    6.15   -0.94   0.000   0.200   0.000    0.00
  11.200   19.33    5.07   -1.19   0.000   0.200   0.000    0.00
  11.250   18.33    3.10   -1.12   0.000   0.200   0.000    0.00
  11.300   18.35    6.20   -0.29   0.000   0.200   0.000    0.00
  11.350   18.68    7.00    0.28   0.000   0.200   0.000    0.00
  11.400   18.37    5.90    0.70   0.000   0.200   0.000    0.00
  11.450   18.03    3.86    0.04   0.000   0.200   0.000    0.00
  11.500   17.59    6.95    0.32   0.000   0.200   0.000    0.00
  11.550   17.55    7.04    1.11   0.000   0.200   0.000    0.00
  11.600   17.25    9.63    0.75   0.000   0.200   0.000    0.00
  11.650   17.72   11.23    0.17   0.000   0.200   0.000    0.00
  11.700   18.10    9.84   -0.30   0.000   0.200   0.000    0.00
  11.750   17.89    8.00   -0.25   0.000   0.200   0.000    0.00
  11.800   18.02    7.49    0.72   0.000   0.200   0.000    0.00
  11.850   17.91    9.79    0.87   0.000   0.200   0.000    0.00
  11.900   19.59    8.38    1.44   0.000   0.200   0.000    0.00
  11.950   19.92    7.82    1.26   0.000   0.200   0.000    0.00
  12.000   19.17    5.84   -0.09   0.000   0.200   0.000    0.00
  12.050   18.37    5.86    0.15   0.000   0.200   0.000    0.00
  12.100   18.94    4.62    0.05   0.000   0.200   0.000    0.00
  12.150   18.61    3.46    0.25   0.000   0.200   0.000    0.00
  12.200   18.62    5.86    0.66   0.000   0.200   0.000    0.00
  12.250   18.61    5.92    0.83   0.000   0.200   0.000    0.00
  12.300   19.50    7.05    1.18   0.000   0.200   0.000    0.00
  12.350   19.48    8.96    1.30   0.000   0.200   0.000    0.00
  12.400   19.40    8.02    0.72   0.000   0.200   0.000    0.00
  12.450   19.60    6.01    0.80   0.000   0.200   0.000    0.00
  12.500   19.55    3.28    1.23   0.000   0.200   0.000    0.00
  12.550   20.18    2.76    1.27   0.000   0.200   0.000    0.00
  12.600   20.05    2.79    0.48   0.000   0.200   0.000    0.00
  12.650   20.27    1.13   -0.91   0.000   0.200   0.000    0.00
  12.700   20.00    2.97   -0.56   0.000   0.200   0.000    0.00
  12.750   20.30    4.85   -1.41   0.000   0.200   0.000    0.00
  12.800   20.20    7.23   -1.31   0.000   0.200   0.000    0.00
  12.850   20.99    9.63   -1.54   0.000   0.200   0.000    0.00
  12.900   21.60    8.92   -1.25   0.000   0.200   0.000    0.00
  12.950   21.01    7.22   -1.06   0.000   0.200   0.000    0.00
  13.000   21.07    3.04   -1.34   0.000   0.200   0.000    0.00
  13.050   21.43    5.66   -1.09   0.000   0.200   0.000    0.00
  13.100   20.90    4.06   -1.43   0.000   0.200   0.000    0.00
  13.150   20.25    4.79   -1.02   0.000   0.200   0.000    0.00
  13.200   20.44    5.51   -1.37   0.000   0.200   0.000    0.00
  13.250   20.00    5.39   -0.70   0.000   0.200   0.000    0.00
  13.300   19.79    5.32   -0.90   0.000   0.200   0.000    0.00
  13.350   20.95    5.10    0.02   0.000   0.200   0.000    0.00
  13.400   20.64    5.27    0.20   0.000   0.200   0.000    0.00
  13.450   20.97    3.69   -0.69   0.000   0.200   0.000    0.00
  13.500   20.76    5.27   -0.42   0.000   0.200   0.000    0.00
  13.550   20.42    6.35   -0.26   0.000   0.200   0.000    0.00
  13.600   19.15    6.99    0.33   0.000   0.200   0.000    0.00
  13.650   19.84    7.42    0.27   0.000   0.200   0.000    0.00
  13.700   20.31   12.87    0.54   0.000   0.200   0.000    0.00
  13.750   20.40   11.08   -0.67   0.000   0.200   0.000    0.00
  13.800   20.78   13.54   -0.87   0.000   0.200   0.000    0.00
  13.850   20.68   14.00   -1.40   0.000   0.200   0.000    0.00
  13.900   21.30   16.10   -0.85   0.000   0.200   0.000    0.00
  13.950   21.33   16.11   -0.07   0.000   0.200   0.000    0.00
  14.000   20.67   16.36    0.38   0.000   0.200   0.000    0.00
  14.050   20.18   15.43   -0.16   0.000   0.200   0.000    0.00
  14.100   20.17   15.35   -0.37   0.000   0.200   0.000    0.00
  14.150   20.02   18.69   -0.10   0.000   0.200   0.000    0.00
  14.200   19.79   21.02    0.49   0.000   0.200   0.000    0.00
  14.250   20.08   20.38   -0.66   0.000   0.200   0.000    0.00
  14.300   20.69   20.64   -0.90   0.000   0.200   0.000    0.00
  14.350   20.06   22.75   -1.28   0.000   0.200   0.000    0.00
  14.400   18.84   19.84   -0.39   0.000   0.200   0.000    0.00
  14.450   18.79   22.13   -0.42   0.000   0.200   0.000    0.00
  14.500   17.99   22.02    0.05   0.000   0.200   0.000    0.00
  14.550   18.43   22.32   -0.43   0.000   0.200   0.000    0.00
  14.600   18.42   19.88   -1.82   0.000   0.200   0.000    0.00
  14.650   19.51   20.23   -1.74   0.000   0.200   0.000    0.00
  14.700   19.67   22.32   -0.99   0.000   0.200   0.000    0.00
  14.750   20.02   16.86   -2.17   0.000   0.200   0.000    0.00
  14.800   19.55   16.89   -2.14   0.000   0.200   0.000    0.00
  14.850   20.61   14.65   -2.25   0.000   0.200   0.000    0.00
  14.900   19.82   17.64   -2.53   0.000   0.200   0.000    0.00
  14.950   20.40   18.06   -2.31   0.000   0.200   0.000    0.00
  15.000   20.58   17.03   -1.86   0.000   0.200   0.000    0.00
  15.050   20.22   19.36   -1.46   0.000   0.200   0.000    0.00
  15.100   20.24   24.24   -1.73   0.000   0.200   0.000    0.00
  15.150   20.01   23.56   -1.40   0.000   0.200   0.000    0.00
  15.200   20.12   23.64   -0.96   0.000   0.200   0.000    0.00
  15.250   19.69   22.11   -0.33   0.000   0.200   0.000    0.00
  15.300   19.39   20.36   -0.14   0.000   0.200   0.000    0.00
  15.350   19.52   20.00   -0.59   0.000   0.200   0.000    0.00
  15.400   19.00   19.99   -0.67   0.000   0.200   0.000    0.00
  15.450   18.90   19.23    0.13   0.000   0.200   0.000    0.00
  15.500   20.10   21.87   -0.75   0.000   0.200   0.000    0.00
  15.550   20.90   20.55   -1.55   0.000   0.200   0.000    0.00
  15.600   21.82   18.33   -2.77   0.000   0.200   0.000    0.00
  15.650   21.73   18.57   -2.63   0.000   0.200   0.000    0.00
  15.700   21.15   20.21   -3.25   0.000   0.200   0.000    0.00
  15.750   21.28   22.44   -4.28   0.000   0.200   0.000    0.00
  15.800   21.13   18.07   -3.70   0.000   0.200   0.000    0.00
  15.850   21.21   19.25   -2.97   0.000   0.200   0.000    0.00
  15.900   21.05   18.64   -2.62   0.000   0.200   0.000    0.00
  15.950   20.84   16.58   -3.28   0.000   0.200   0.000    0.00
  16.000   20.49   16.37   -3.23   0.000   0.200   0.000    0.00
  16.050   20.45   16.23   -4.68   0.000   0.200   0.000    0.00
  16.100   20.30   17.00   -4.84   0.000   0.200   0.000    0.00
  16.150   20.15   14.43   -3.72   0.000   0.200   0.000    0.00
  16.200   21.11   13.24   -2.86   0.000   0.200   0.000    0.00
  16.250   20.69   14.57   -3.27   0.000   0.200   0.000    0.00
  16.300   20.42   13.72   -4.25   0.000   0.200   0.000    0.00
  16.350   21.45   14.40   -3.54   0.000   0.200   0.000    0.00
  16.400   21.99   13.73   -2.00   0.000   0.200   0.000    0.00
  16.450   22.30   14.57   -1.76   0.000   0.200   0.000    0.00
  16.500   22.96   17.95   -1.54   0.000   0.200   0.000    0.00
  16.550   23.46   20.09   -1.55   0.000   0.200   0.000    0.00
  16.600   22.40   18.22   -1.52   0.000   0.200   0.000    0.00
  16.650   21.74   18.40   -1.33   0.000   0.200   0.000    0.00
  16.700   22.38   16.40   -0.60   0.000   0.200   0.000    0.00
  16.750   22.14   17.13   -1.65   0.000   0.200   0.000    0.00
  16.800   22.15   17.57   -1.11   0.000   0.200   0.000    0.00
  16.850   22.49   16.06   -1.33   0.000   0.200   0.000    0.00
  16.900   22.32   13.60   -1.32   0.000   0.200   0.000    0.00
  16.950   21.91   13.44   -1.31   0.000   0.200   0.000    0.00
  17.000   21.61   12.32   -1.10   0.000   0.200   0.000    0.00
  17.050   21.89   12.74   -2.29   0.000   0.200   0.000    0.00
  17.100   22.10   11.17   -2.67   0.000   0.200   0.000    0.00
  17.150   22.72   12.38   -3.28   0.000   0.200   0.000    0.00
  17.200   22.34   11.04   -2.72   0.000   0.200   0.000    0.00
  17.250   22.91   13.25   -1.69   0.000   0.200   0.000    0.00
  17.300   23.87   14.34   -1.51   0.000   0.200   0.000    0.00
  17.350   24.27   14.02   -1.02   0.000   0.200   0.000    0.00
  17.400   23.87   13.33   -2.05   0.000   0.200   0.000    0.00
  17.450   24.42   13.91   -1.67   0.000   0.200   0.000    0.00
  17.500   25.43   14.88   -1.36   0.000   0.200   0.000    0.00
  17.550   25.91   17.20   -2.04   0.000   0.200   0.000    0.00
  17.600   25.36   17.37   -1.71   0.000   0.200   0.000    0.00
  17.650   24.58   19.02   -1.42   0.000   0.200   0.000    0.00
  17.700   24.92   18.39   -0.67   0.000   0.200   0.000    0.00
  17.750   24.10   17.50   -0.43   0.000   0.200   0.000    0.00
  17.800   23.16   12.78   -0.58   0.000   0.200   0.000    0.00
  17.850   23.80   11.41   -0.70   0.000   0.200   0.000    0.00
  17.900   23.79   11.42   -0.99   0.000   0.200   0.000    0.00
  17.950   24.31    8.74   -0.34   0.000   0.200   0.000    0.00
  18.000   24.62    6.52   -1.28   0.000   0.200   0.000    0.00
  18.050   23.73    4.86   -1.46   0.000   0.200   0.000    0.00
  18.100   22.88    7.19   -0.37   0.000   0.200   0.000    0.00
  18.150   23.00    6.43   -1.04   0.000   0.200   0.000    0.00
  18.200   23.34    7.37   -2.24   0.000   0.200   0.000    0.00
  18.250   23.76    5.26   -2.36   0.000   0.200   0.000    0.00
  18.300   24.07    6.08   -2.27   0.000   0.200   0.000    0.00
  18.350   23.01    7.00   -2.89   0.000   0.200   0.000    0.00
  18.400   22.71    5.88   -2.55   0.000   0.200   0.000    0.00
  18.450   22.97    7.29   -2.48   0.000   0.200   0.000    0.00
  18.500   22.73    7.23   -2.64   0.000   0.200   0.000    0.00
  18.550   21.77    8.01   -2.42   0.000   0.200   0.000    0.00
  18.600   20.74   10.96   -2.11   0.000   0.200   0.000    0.00
  18.650   21.75   10.12   -2.43   0.000   0.200   0.000    0.00
  18.700   22.43    8.74   -2.47   0.000   0.200   0.000    0.00
  18.750   21.89    8.58   -1.84   0.000   0.200   0.000    0.00
  18.800   21.51    8.58   -1.74   0.000   0.200   0.000    0.00
  18.850   20.78    7.07   -1.82   0.000   0.200   0.000    0.00
  18.900   21.45    5.78   -0.79   0.000   0.200   0.000    0.00
  18.950   20.98    6.47   -1.36   0.000   0.200   0.000    0.00
  19.000   20.69    6.19   -1.76   0.000   0.200   0.000    0.00
  19.050   20.78    8.13   -1.20   0.000   0.200   0.000    0.00
  19.100   20.87    9.43   -0.56   0.000   0.200   0.000    0.00
  19.150   20.74    8.52   -0.26   0.000   0.200   0.000    0.00
  19.200   20.92    7.98    0.06   0.000   0.200   0.000    0.00
  19.250   21.60    5.23    0.53   0.000   0.200   0.000    0.00
  19.300   21.81    9.00    0.71   0.000   0.200   0.000    0.00
  19.350   22.89    7.69    0.71   0.000   0.200   0.000    0.00
  19.400   22.66    8.49    0.83   0.000   0.200   0.000    0.00
  19.450   22.05    9.97    0.36   0.000   0.200   0.000    0.00
  19.500   22.28    9.32    1.01   0.000   0.200   0.000    0.00
  19.550   23.31   10.76    0.87   0.000   0.200   0.000    0.00
  19.600   22.30   11.48    0.36   0.000   0.200   0.000    0.00
  19.650   22.11   11.10   -0.61   0.000   0.200   0.000    0.00
  19.700   22.44   11.34   -0.38   0.000   0.200   0.000    0.00
  19.750   22.72   13.88   -0.81   0.000   0.200   0.000    0.00
  19.800   23.09   10.75   -1.26   0.000   0.200   0.000    0.00
  19.850   24.10   10.18   -1.14   0.000   0.200   0.000    0.00
  19.900   24.31   11.11   -0.32   0.000   0.200   0.000    0.00
  19.950   23.41    7.03   -0.57   0.000   0.200   0.000    0.00
  20.000   23.60    7.11    0.28   0.000   0.200   0.000    0.00
  20.050   23.32    6.43    0.29   0.000   0.200   0.000    0.00
  20.100   22.60    4.79    0.31   0.000   0.200   0.000    0.00
  20.150   23.21    5.29    0.43   0.000   0.200   0.000    0.00
  20.200   23.38    2.21    0.92   0.000   0.200   0.000    0.00
  20.250   23.13    3.19    1.82   0.000   0.200   0.000    0.00
  20.300   23.35    5.21    2.17   0.000   0.200   0.000    0.00
  20.350   23.12    5.79    2.20   0.000   0.200   0.000    0.00
  20.400   22.77    3.29    1.94   0.000   0.200   0.000    0.00
  20.450   22.71    0.01    2.19   0.000   0.200   0.000    0.00
  20.500   22.23    2.66    2.91   0.000   0.200   0.000    0.00
  20.550   21.79    2.74    2.15   0.000   0.200   0.000    0.00
  20.600   21.52    2.49    1.09   0.000   0.200   0.000    0.00
  20.650   20.79    0.56    0.46   0.000   0.200   0.000    0.00
  20.700   21.29    4.98    1.39   0.000   0.200   0.000    0.00
  20.750   21.05    4.61    1.92   0.000   0.200   0.000    0.00
  20.800   21.35    1.82    1.44   0.000   0.200   0.000    0.00
  20.850   22.41    0.42    1.06   0.000   0.200   0.000    0.00
  20.900   21.59   -0.01    0.94   0.000   0.200   0.000    0.00
  20.950   23.22    1.06    0.68   0.000   0.200   0.000    0.00
  21.000   22.29    2.46    0.52   0.000   0.200   0.000    0.00
  21.050   21.90    4.29    1.14   0.000   0.200   0.000    0.00
  21.100   21.53    4.30    1.66   0.000   0.200   0.000    0.00
  21.150   21.14    6.80    1.96   0.000   0.200   0.000    0.00
  21.200   20.70    7.81    2.24   0.000   0.200   0.000    0.00
  21.250   20.62    5.93    0.65   0.000   0.200   0.000    0.00
  21.300   20.91    3.97   -0.32   0.000   0.200   0.000    0.00
  21.350   21.52    6.52   -0.52   0.000   0.200   0.000    0.00
  21.400   21.69    6.82   -0.70   0.000   0.200   0.000    0.00
  21.450   21.91    8.93   -0.77   0.000   0.200   0.000    0.00
  21.500   22.23    9.75   -0.12   0.000   0.200   0.000    0.00
  21.550   21.97    9.81    0.53   0.000   0.200   0.000    0.00
  21.600   22.47    8.79    1.50   0.000   0.200   0.000    0.00
  21.650   22.75    7.94    0.30   0.000   0.200   0.000    0.00
  21.700   23.47    9.05   -0.06   0.000   0.200   0.000    0.00
  21.750   23.37    8.66   -0.23   0.000   0.200   0.000    0.00
  21.800   24.48    7.72    0.23   0.000   0.200   0.000    0.00
  21.850   24.87    6.07    0.26   0.000   0.200   0.000    0.00
  21.900   24.75    5.75    0.83   0.000   0.200   0.000    0.00
  21.950   26.20    5.76    0.45   0.000   0.200   0.000    0.00
  22.000   26.34    5.29    0.07   0.000   0.200   0.000    0.00
  22.050   25.17    5.97   -0.08   0.000   0.200   0.000    0.00
  22.100   26.14    6.61   -0.27   0.000   0.200   0.000    0.00
  22.150   25.13    7.99    0.33   0.000   0.200   0.000    0.00
  22.200   25.12    8.43    0.69   0.000   0.200   0.000    0.00
  22.250   25.63    6.39    0.69   0.000   0.200   0.000    0.00
  22.300   25.97    4.36    0.09   0.000   0.200   0.000    0.00
  22.350   25.61    8.08   -0.37   0.000   0.200   0.000    0.00