! This hub-height wind-speed file was generated by TurbSim (v1.06.00, 21-Sep-2012) on 03-Feb-2018 at 23:30:44.
!
! The requested statistics for this data were:
!    Mean Total Wind Speed =   21.000 m/s
!    Turbulence Intensity  =   18.325%
!
!   Time  HorSpd  WndDir  VerSpd  HorShr  VerShr  LnVShr  GstSpd
!  (sec)   (m/s)   (deg)   (m/s)     (-)     (-)     (-)   (m/s)
   0.000   25.04    2.57   -1.62   0.000   0.200   0.000    0.00
   0.050   25.83    1.27   -1.14   0.000   0.200   0.000    0.00
   0.100   25.51    5.44   -1.67   0.000   0.200   0.000    0.00
   0.150   26.67    6.80   -1.93   0.000   0.200   0.000    0.00
   0.200   27.04    6.11   -1.42   0.000   0.200   0.000    0.00
   0.250   27.13    3.99   -2.54   0.000   0.200   0.000    0.00
   0.300   27.04    1.68   -2.35   0.000   0.200   0.000    0.00
   0.350   27.02    1.77   -3.37   0.000   0.200   0.000    0.00
   0.400   26.86    3.55   -1.82   0.000   0.200   0.000    0.00
   0.450   26.89    5.67   -1.01   0.000   0.200   0.000    0.00
   0.500   27.07    5.55   -1.26   0.000   0.200   0.000    0.00
   0.550   26.27    7.55   -1.81   0.000   0.200   0.000    0.00
   0.600   24.86    6.96   -2.38   0.000   0.200   0.000    0.00
   0.650   24.64    6.09   -1.65   0.000   0.200   0.000    0.00
   0.700   23.87    6.51   -2.82   0.000   0.200   0.000    0.00
   0.750   22.92    7.38   -3.05   0.000   0.200   0.000    0.00
   0.800   22.25   13.65   -3.55   0.000   0.200   0.000    0.00
   0.850   21.54   13.36   -3.42   0.000   0.200   0.000    0.00
   0.900   21.93   12.66   -2.68   0.000   0.200   0.000    0.00
   0.950   21.56   13.31   -1.77   0.000   0.200   0.000    0.00
   1.000   23.87   12.70   -2.79   0.000   0.200   0.000    0.00
   1.050   24.98    9.18   -3.13   0.000   0.200   0.000    0.00
   1.100   24.71    7.55   -2.89   0.000   0.200   0.000    0.00
   1.150   25.50    6.88   -0.67   0.000   0.200   0.000    0.00
   1.200   26.05    4.17   -1.74   0.000   0.200   0.000    0.00
   1.250   25.07    4.54   -2.92   0.000   0.200   0.000    0.00
   1.300   24.60    7.10   -2.71   0.000   0.200   0.000    0.00
   1.350   24.13    6.93   -3.03   0.000   0.200   0.000    0.00
   1.400   24.47    8.28   -2.71   0.000   0.200   0.000    0.00
   1.450   25.11   10.91   -0.64   0.000   0.200   0.000    0.00
   1.500   25.46    9.79    2.10   0.000   0.200   0.000    0.00
   1.550   25.52    9.66    1.28   0.000   0.200   0.000    0.00
   1.600   25.90   11.71   -0.09   0.000   0.200   0.000    0.00
   1.650   25.73   10.51    0.68   0.000   0.200   0.000    0.00
   1.700   24.58   11.71    0.48   0.000   0.200   0.000    0.00
   1.750   24.96    9.85    1.27   0.000   0.200   0.000    0.00
   1.800   24.94    9.73    2.42   0.000   0.200   0.000    0.00
   1.850   26.26   15.59    1.90   0.000   0.200   0.000    0.00
   1.900   24.64   12.88   -0.32   0.000   0.200   0.000    0.00
   1.950   23.93   10.89    0.46   0.000   0.200   0.000    0.00
   2.000   25.05   12.42   -0.71   0.000   0.200   0.000    0.00
   2.050   25.81   11.20   -1.85   0.000   0.200   0.000    0.00
   2.100   26.69   11.50   -1.56   0.000   0.200   0.000    0.00
   2.150   25.15   11.16    1.15   0.000   0.200   0.000    0.00
   2.200   24.40   11.53    2.72   0.000   0.200   0.000    0.00
   2.250   23.66    8.02    2.28   0.000   0.200   0.000    0.00
   2.300   23.79    5.98    1.25   0.000   0.200   0.000    0.00
   2.350   24.28    6.19   -0.58   0.000   0.200   0.000    0.00
   2.400   25.22    8.75    0.61   0.000   0.200   0.000    0.00
   2.450   25.79    8.60   -0.68   0.000   0.200   0.000    0.00
   2.500   26.31    6.80   -0.80   0.000   0.200   0.000    0.00
   2.550   26.22    7.32   -0.33   0.000   0.200   0.000    0.00
   2.600   25.49    7.34   -2.58   0.000   0.200   0.000    0.00
   2.650   24.31    7.26   -2.39   0.000   0.200   0.000    0.00
   2.700   25.09    6.13   -1.04   0.000   0.200   0.000    0.00
   2.750   26.28    5.44   -0.57   0.000   0.200   0.000    0.00
   2.800   26.05    4.18   -0.46   0.000   0.200   0.000    0.00
   2.850   26.09    0.39   -1.01   0.000   0.200   0.000    0.00
   2.900   25.07    1.48   -0.36   0.000   0.200   0.000    0.00
   2.950   25.02    0.60   -0.97   0.000   0.200   0.000    0.00
   3.000   25.37   -1.63   -0.83   0.000   0.200   0.000    0.00
   3.050   24.65   -0.36   -1.51   0.000   0.200   0.000    0.00
   3.100   26.12   -3.54   -1.59   0.000   0.200   0.000    0.00
   3.150   25.80   -1.96   -2.48   0.000   0.200   0.000    0.00
   3.200   26.12   -3.43   -1.34   0.000   0.200   0.000    0.00
   3.250   25.52   -1.77   -2.10   0.000   0.200   0.000    0.00
   3.300   24.64   -3.60   -0.82   0.000   0.200   0.000    0.00
   3.350   23.68   -2.45   -1.04   0.000   0.200   0.000    0.00
   3.400   24.41   -3.73   -1.20   0.000   0.200   0.000    0.00
   3.450   24.68   -4.50   -1.61   0.000   0.200   0.000    0.00
   3.500   23.90   -5.52   -2.00   0.000   0.200   0.000    0.00
   3.550   23.16   -3.53   -1.46   0.000   0.200   0.000    0.00
   3.600   23.05   -4.70   -1.03   0.000   0.200   0.000    0.00
   3.650   23.13   -3.76   -0.35   0.000   0.200   0.000    0.00
   3.700   22.74   -4.42   -0.94   0.000   0.200   0.000    0.00
   3.750   23.28   -3.42   -1.84   0.000   0.200   0.000    0.00
   3.800   24.16   -1.06   -2.39   0.000   0.200   0.000    0.00
   3.850   24.36    0.56   -2.76   0.000   0.200   0.000    0.00
   3.900   23.42   -1.65   -3.64   0.000   0.200   0.000    0.00
   3.950   22.71   -0.56   -4.15   0.000   0.200   0.000    0.00
   4.000   23.75   -0.81   -4.03   0.000   0.200   0.000    0.00
   4.050   24.91   -0.22   -3.01   0.000   0.200   0.000    0.00
   4.100   25.42    1.80   -3.66   0.000   0.200   0.000    0.00
   4.150   24.56    7.01   -1.46   0.000   0.200   0.000    0.00
   4.200   24.77    9.77   -0.41   0.000   0.200   0.000    0.00
   4.250   26.07    9.93   -0.94   0.000   0.200   0.000    0.00
   4.300   24.62   12.12   -0.84   0.000   0.200   0.000    0.00
   4.350   24.62   12.62   -0.65   0.000   0.200   0.000    0.00
   4.400   23.82   13.39    0.93   0.000   0.200   0.000    0.00
   4.450   23.53   11.80    1.68   0.000   0.200   0.000    0.00
   4.500   23.19    9.74    0.22   0.000   0.200   0.000    0.00
   4.550   22.69   10.31    0.50   0.000   0.200   0.000    0.00
   4.600   22.03   12.39    0.98   0.000   0.200   0.000    0.00
   4.650   21.10    9.22    0.98   0.000   0.200   0.000    0.00
   4.700   21.47    8.09   -0.49   0.000   0.200   0.000    0.00
   4.750   22.23    6.15   -0.13   0.000   0.200   0.000    0.00
   4.800   22.37    6.97    0.53   0.000   0.200   0.000    0.00
   4.850   22.96    8.78    1.51   0.000   0.200   0.000    0.00
   4.900   21.81    8.29    0.62   0.000   0.200   0.000    0.00
   4.950   20.95   10.37    1.74   0.000   0.200   0.000    0.00
   5.000   21.61    8.96    0.94   0.000   0.200   0.000    0.00
   5.050   20.99    7.28    0.73   0.000   0.200   0.000    0.00
   5.100   21.24    6.05    0.59   0.000   0.200   0.000    0.00
   5.150   21.04    5.64    0.00   0.000   0.200   0.000    0.00
   5.200   21.24    3.22    0.43   0.000   0.200   0.000    0.00
   5.250   21.97    4.52    1.48   0.000   0.200   0.000    0.00
   5.300   23.42    3.71    1.36   0.000   0.200   0.000    0.00
   5.350   23.22    2.90    1.02   0.000   0.200   0.000    0.00
   5.400   24.77    3.42    1.45   0.000   0.200   0.000    0.00
   5.450   24.56    4.76    1.49   0.000   0.200   0.000    0.00
   5.500   24.93   -1.42   -0.27   0.000   0.200   0.000    0.00
   5.550   25.14   -2.49   -0.72   0.000   0.200   0.000    0.00
   5.600   24.17    1.80   -0.30   0.000   0.200   0.000    0.00
   5.650   24.98    1.95    0.58   0.000   0.200   0.000    0.00
   5.700   24.75    1.09   -1.07   0.000   0.200   0.000    0.00
   5.750   23.34   -2.35   -2.54   0.000   0.200   0.000    0.00
   5.800   23.83   -3.21   -1.51   0.000   0.200   0.000    0.00
   5.850   24.29   -1.21   -1.61   0.000   0.200   0.000    0.00
   5.900   23.34   -2.57   -2.60   0.000   0.200   0.000    0.00
   5.950   24.26   -3.68   -1.67   0.000   0.200   0.000    0.00
   6.000   24.80   -2.77   -1.09   0.000   0.200   0.000    0.00
   6.050   24.64   -1.39   -1.73   0.000   0.200   0.000    0.00
   6.100   25.45   -1.28   -1.11   0.000   0.200   0.000    0.00
   6.150   25.91   -4.39   -0.40   0.000   0.200   0.000    0.00
   6.200   27.61   -5.31   -1.75   0.000   0.200   0.000    0.00
   6.250   26.22   -5.80   -2.68   0.000   0.200   0.000    0.00
   6.300   26.37   -7.01   -1.94   0.000   0.200   0.000    0.00
   6.350   27.95   -6.20   -2.66   0.000   0.200   0.000    0.00
   6.400   28.38   -5.42   -2.49   0.000   0.200   0.000    0.00
   6.450   27.41   -4.23   -3.12   0.000   0.200   0.000    0.00
   6.500   26.99   -6.78   -3.06   0.000   0.200   0.000    0.00
   6.550   26.66  -11.09   -3.79   0.000   0.200   0.000    0.00
   6.600   27.94  -10.41   -3.44   0.000   0.200   0.000    0.00
   6.650   28.28   -9.79   -5.20   0.000   0.200   0.000    0.00
   6.700   28.66   -8.95   -5.92   0.000   0.200   0.000    0.00
   6.750   29.30  -10.39   -4.88   0.000   0.200   0.000    0.00
   6.800   29.33   -7.37   -5.05   0.000   0.200   0.000    0.00
   6.850   29.83   -6.31   -5.68   0.000   0.200   0.000    0.00
   6.900   29.23   -4.85   -5.63   0.000   0.200   0.000    0.00
   6.950   29.51   -8.08   -5.45   0.000   0.200   0.000    0.00
   7.000   30.52   -9.40   -4.69   0.000   0.200   0.000    0.00
   7.050   30.89   -7.39   -2.49   0.000   0.200   0.000    0.00
   7.100   29.81   -5.80   -2.65   0.000   0.200   0.000    0.00
   7.150   31.12   -6.54   -2.08   0.000   0.200   0.000    0.00
   7.200   31.21   -6.81   -2.53   0.000   0.200   0.000    0.00
   7.250   32.64   -4.80   -2.81   0.000   0.200   0.000    0.00
   7.300   31.87   -3.27   -2.42   0.000   0.200   0.000    0.00
   7.350   32.38   -4.59   -4.88   0.000   0.200   0.000    0.00
   7.400   32.23   -3.00   -5.19   0.000   0.200   0.000    0.00
   7.450   31.89    0.76   -5.34   0.000   0.200   0.000    0.00
   7.500   32.75   -0.27   -3.92   0.000   0.200   0.000    0.00
   7.550   31.93   -1.54   -4.28   0.000   0.200   0.000    0.00
   7.600   31.62    0.29   -4.51   0.000   0.200   0.000    0.00
   7.650   30.52   -0.39   -4.26   0.000   0.200   0.000    0.00
   7.700   31.77   -1.42   -3.44   0.000   0.200   0.000    0.00
   7.750   31.47   -3.01   -3.20   0.000   0.200   0.000    0.00
   7.800   32.01   -3.36   -2.29   0.000   0.200   0.000    0.00
   7.850   33.26   -5.82   -2.83   0.000   0.200   0.000    0.00
   7.900   33.30   -3.02   -4.10   0.000   0.200   0.000    0.00
   7.950   34.12   -1.04   -4.12   0.000   0.200   0.000    0.00
   8.000   33.71   -3.03   -3.07   0.000   0.200   0.000    0.00
   8.050   33.83   -3.23   -2.42   0.000   0.200   0.000    0.00
   8.100   33.08   -3.43   -1.34   0.000   0.200   0.000    0.00
   8.150   33.68   -3.87   -1.39   0.000   0.200   0.000    0.00
   8.200   32.86   -4.51   -1.29   0.000   0.200   0.000    0.00
   8.250   33.32   -4.91   -2.65   0.000   0.200   0.000    0.00
   8.300   33.63   -3.71   -2.49   0.000   0.200   0.000    0.00
   8.350   32.19   -4.34   -2.00   0.000   0.200   0.000    0.00
   8.400   31.42   -2.31   -2.35   0.000   0.200   0.000    0.00
   8.450   32.63   -2.62   -2.84   0.000   0.200   0.000    0.00
   8.500   31.29   -5.52   -2.83   0.000   0.200   0.000    0.00
   8.550   30.07   -6.03   -3.08   0.000   0.200   0.000    0.00
   8.600   29.84   -5.52   -2.31   0.000   0.200   0.000    0.00
   8.650   30.66   -6.61   -2.03   0.000   0.200   0.000    0.00
   8.700   30.79   -4.79   -1.85   0.000   0.200   0.000    0.00
   8.750   30.72   -2.88   -1.51   0.000   0.200   0.000    0.00
   8.800   30.94   -4.03   -3.26   0.000   0.200   0.000    0.00
   8.850   30.72   -2.06   -4.13   0.000   0.200   0.000    0.00
   8.900   29.94   -2.10   -3.34   0.000   0.200   0.000    0.00
   8.950   28.67   -1.20   -4.04   0.000   0.200   0.000    0.00
   9.000   28.96   -1.93   -4.59   0.000   0.200   0.000    0.00
   9.050   28.74   -3.36   -4.22   0.000   0.200   0.000    0.00
   9.100   28.30   -3.05   -4.32   0.000   0.200   0.000    0.00
   9.150   28.76   -4.01   -3.18   0.000   0.200   0.000    0.00
   9.200   28.30   -3.19   -2.70   0.000   0.200   0.000    0.00
   9.250   27.83   -4.21   -1.84   0.000   0.200   0.000    0.00
   9.300   27.64   -4.35   -1.44   0.000   0.200   0.000    0.00
   9.350   26.44   -3.66   -1.02   0.000   0.200   0.000    0.00
   9.400   27.17   -1.85   -1.32   0.000   0.200   0.000    0.00
   9.450   27.37   -1.37   -1.18   0.000   0.200   0.000    0.00
   9.500   27.40   -4.77   -1.89   0.000   0.200   0.000    0.00
   9.550   27.51   -4.80   -1.63   0.000   0.200   0.000    0.00
   9.600   26.68   -5.40   -0.03   0.000   0.200   0.000    0.00
   9.650   27.08   -3.59    1.32   0.000   0.200   0.000    0.00
   9.700   26.39   -1.99    0.49   0.000   0.200   0.000    0.00
   9.750   26.60   -3.56    1.12   0.000   0.200   0.000    0.00
   9.800   26.85   -2.66    1.88   0.000   0.200   0.000    0.00
   9.850   27.96   -1.37    2.12   0.000   0.200   0.000    0.00
   9.900   28.13   -3.26    2.21   0.000   0.200   0.000    0.00
   9.950   27.11   -5.51    2.77   0.000   0.200   0.000    0.00
  10.000   26.34   -3.78    3.56   0.000   0.200   0.000    0.00
  10.050   26.57   -5.41    3.42   0.000   0.200   0.000    0.00
  10.100   26.44   -6.89    4.15   0.000   0.200   0.000    0.00
  10.150   28.19   -3.10    3.16   0.000   0.200   0.000    0.00
  10.200   28.73   -6.48    3.26   0.000   0.200   0.000    0.00
  10.250   28.78   -3.92    2.48   0.000   0.200   0.000    0.00
  10.300   28.37   -5.30    1.09   0.000   0.200   0.000    0.00
  10.350   28.31   -6.10    0.49   0.000   0.200   0.000    0.00
  10.400   28.27   -3.93    0.70   0.000   0.200   0.000    0.00
  10.450   28.42   -4.89    0.71   0.000   0.200   0.000    0.00
  10.500   28.21   -6.75   -0.54   0.000   0.200   0.000    0.00
  10.550   27.51   -7.96   -0.65   0.000   0.200   0.000    0.00
  10.600   28.19   -7.53   -2.00   0.000   0.200   0.000    0.00
  10.650   28.16   -8.89   -1.16   0.000   0.200   0.000    0.00
  10.700   27.54   -7.61   -0.94   0.000   0.200   0.000    0.00
  10.750   27.40   -7.55   -2.00   0.000   0.200   0.000    0.00
  10.800   27.31   -4.41   -1.39   0.000   0.200   0.000    0.00
  10.850   25.70   -4.21   -0.57   0.000   0.200   0.000    0.00
  10.900   25.61   -4.63   -0.09   0.000   0.200   0.000    0.00
  10.950   26.25   -4.46   -0.66   0.000   0.200   0.000    0.00
  11.000   26.19   -4.16   -0.16   0.000   0.200   0.000    0.00
  11.050   25.05   -4.36   -1.36   0.000   0.200   0.000    0.00
  11.100   25.55   -4.40   -1.36   0.000   0.200   0.000    0.00
  11.150   24.37   -3.00   -0.71   0.000   0.200   0.000    0.00
  11.200   23.76   -4.53    0.17   0.000   0.200   0.000    0.00
  11.250   24.46   -5.80    1.31   0.000   0.200   0.000    0.00
  11.300   24.44   -8.62    2.23   0.000   0.200   0.000    0.00
  11.350   25.23   -7.26    3.51   0.000   0.200   0.000    0.00
  11.400   25.00   -7.75    2.22   0.000   0.200   0.000    0.00
  11.450   24.94   -7.07    2.30   0.000   0.200   0.000    0.00
  11.500   25.10   -5.70    2.70   0.000   0.200   0.000    0.00
  11.550   25.48   -5.09    1.92   0.000   0.200   0.000    0.00
  11.600   24.59   -3.50    2.66   0.000   0.200   0.000    0.00
  11.650   24.48   -2.69    1.85   0.000   0.200   0.000    0.00
  11.700   25.05   -1.52    1.15   0.000   0.200   0.000    0.00
  11.750   25.62   -1.87    1.53   0.000   0.200   0.000    0.00
  11.800   26.80   -2.02    2.69   0.000   0.200   0.000    0.00
  11.850   25.56   -0.60    2.12   0.000   0.200   0.000    0.00
  11.900   25.07   -0.13    2.03   0.000   0.200   0.000    0.00
  11.950   26.07   -1.74    1.85   0.000   0.200   0.000    0.00
  12.000   25.02   -2.54    1.57   0.000   0.200   0.000    0.00
  12.050   25.97   -2.56    0.28   0.000   0.200   0.000    0.00
  12.100   26.08   -6.33    0.80   0.000   0.200   0.000    0.00
  12.150   26.97   -3.74   -0.28   0.000   0.200   0.000    0.00
  12.200   26.23   -3.61    0.12   0.000   0.200   0.000    0.00
  12.250   26.22    1.09    0.50   0.000   0.200   0.000    0.00
  12.300   26.12   -2.49   -0.45   0.000   0.200   0.000    0.00
  12.350   26.09   -2.66    0.84   0.000   0.200   0.000    0.00
  12.400   26.13   -3.71    0.77   0.000   0.200   0.000    0.00
  12.450   26.26   -4.26    1.80   0.000   0.200   0.000    0.00
  12.500   26.22   -5.38    1.23   0.000   0.200   0.000    0.00
  12.550   27.19   -3.36    1.79   0.000   0.200   0.000    0.00
  12.600   27.54   -4.14    1.13   0.000   0.200   0.000    0.00
  12.650   27.96   -3.72    1.11   0.000   0.200   0.000    0.00
  12.700   27.77   -3.73    0.92   0.000   0.200   0.000    0.00
  12.750   27.82   -4.89    2.10   0.000   0.200   0.000    0.00
  12.800   26.38   -4.40    1.57   0.000   0.200   0.000    0.00
  12.850   26.81   -3.27    1.73   0.000   0.200   0.000    0.00
  12.900   26.40   -2.98    1.18   0.000   0.200   0.000    0.00
  12.950   26.67   -1.02   -0.07   0.000   0.200   0.000    0.00
  13.000   26.23    0.88    1.59   0.000   0.200   0.000    0.00
  13.050   27.19   -2.39    1.00   0.000   0.200   0.000    0.00
  13.100   28.15   -5.70    0.48   0.000   0.200   0.000    0.00
  13.150   28.46   -3.80   -0.28   0.000   0.200   0.000    0.00
  13.200   28.21   -4.84   -0.03   0.000   0.200   0.000    0.00
  13.250   29.17   -5.77   -0.39   0.000   0.200   0.000    0.00
  13.300   29.48   -5.39    0.08   0.000   0.200   0.000    0.00
  13.350   29.27   -5.27    0.24   0.000   0.200   0.000    0.00
  13.400   29.25   -3.86   -2.17   0.000   0.200   0.000    0.00
  13.450   29.59   -4.41   -2.88   0.000   0.200   0.000    0.00
  13.500   28.28   -3.16   -2.24   0.000   0.200   0.000    0.00
  13.550   27.31   -5.20   -1.03   0.000   0.200   0.000    0.00
  13.600   27.73   -4.60   -0.03   0.000   0.200   0.000    0.00
  13.650   27.35   -7.65   -0.38   0.000   0.200   0.000    0.00
  13.700   27.25   -5.59   -0.89   0.000   0.200   0.000    0.00
  13.750   27.75   -5.85   -0.15   0.000   0.200   0.000    0.00
  13.800   28.15   -3.30    1.07   0.000   0.200   0.000    0.00
  13.850   28.52   -5.29   -0.68   0.000   0.200   0.000    0.00
  13.900   27.60   -8.55    1.07   0.000   0.200   0.000    0.00
  13.950   27.37   -7.44    2.31   0.000   0.200   0.000    0.00
  14.000   27.03  -10.27    1.10   0.000   0.200   0.000    0.00
  14.050   26.37   -8.60    0.20   0.000   0.200   0.000    0.00
  14.100   25.32   -5.42    0.09   0.000   0.200   0.000    0.00
  14.150   25.40   -6.12    0.05   0.000   0.200   0.000    0.00
  14.200   25.97   -1.54   -0.20   0.000   0.200   0.000    0.00
  14.250   25.84   -0.24    0.61   0.000   0.200   0.000    0.00
  14.300   27.35   -0.14    0.21   0.000   0.200   0.000    0.00
  14.350   27.42   -2.60    0.22   0.000   0.200   0.000    0.00
  14.400   26.81   -0.29   -0.67   0.000   0.200   0.000    0.00
  14.450   27.21   -3.22   -1.20   0.000   0.200   0.000    0.00
  14.500   28.54   -4.09   -0.48   0.000   0.200   0.000    0.00
  14.550   28.15   -3.90   -0.75   0.000   0.200   0.000    0.00
  14.600   27.31   -4.97   -0.28   0.000   0.200   0.000    0.00
  14.650   27.63   -5.55   -0.91   0.000   0.200   0.000    0.00
  14.700   28.23   -4.53   -0.82   0.000   0.200   0.000    0.00
  14.750   28.88   -5.69   -0.74   0.000   0.200   0.000    0.00
  14.800   28.01   -7.02   -1.14   0.000   0.200   0.000    0.00
  14.850   27.59   -4.60    0.63   0.000   0.200   0.000    0.00
  14.900   26.99   -4.75    1.43   0.000   0.200   0.000    0.00
  14.950   27.74   -4.65    0.15   0.000   0.200   0.000    0.00
  15.000   27.71   -4.87   -0.17   0.000   0.200   0.000    0.00
  15.050   27.80   -6.42    0.32   0.000   0.200   0.000    0.00
  15.100   28.71   -6.17   -1.46   0.000   0.200   0.000    0.00
  15.150   28.95   -1.89   -0.58   0.000   0.200   0.000    0.00
  15.200   29.24   -3.32   -0.01   0.000   0.200   0.000    0.00
  15.250   29.15   -2.99   -0.94   0.000   0.200   0.000    0.00
  15.300   29.30   -5.46   -1.11   0.000   0.200   0.000    0.00
  15.350   29.44   -6.51   -1.06   0.000   0.200   0.000    0.00
  15.400   30.43   -5.20    0.10   0.000   0.200   0.000    0.00
  15.450   29.97   -7.22   -0.03   0.000   0.200   0.000    0.00
  15.500   28.67   -5.42   -1.62   0.000   0.200   0.000    0.00
  15.550   30.35   -6.73   -1.24   0.000   0.200   0.000    0.00
  15.600   31.03   -5.27    0.17   0.000   0.200   0.000    0.00
  15.650   30.41   -6.14   -0.40   0.000   0.200   0.000    0.00
  15.700   30.30   -5.09   -1.01   0.000   0.200   0.000    0.00
  15.750   29.52   -9.04   -0.37   0.000   0.200   0.000    0.00
  15.800   29.03   -7.51   -0.71   0.000   0.200   0.000    0.00
  15.850   29.04   -6.27   -1.73   0.000   0.200   0.000    0.00
  15.900   29.26   -7.66   -1.16   0.000   0.200   0.000    0.00
  15.950   29.51  -10.66   -1.41   0.000   0.200   0.000    0.00
  16.000   29.27  -10.35   -0.98   0.000   0.200   0.000    0.00
  16.050   28.88   -9.29   -0.71   0.000   0.200   0.000    0.00
  16.100   27.14   -6.85   -0.03   0.000   0.200   0.000    0.00
  16.150   27.37   -5.85   -0.71   0.000   0.200   0.000    0.00
  16.200   27.59   -5.58   -0.73   0.000   0.200   0.000    0.00
  16.250   28.83   -3.82   -2.22   0.000   0.200   0.000    0.00
  16.300   29.53   -4.47   -1.42   0.000   0.200   0.000    0.00
  16.350   28.38   -5.01   -1.50   0.000   0.200   0.000    0.00
  16.400   27.89   -6.49   -0.59   0.000   0.200   0.000    0.00
  16.450   27.93   -5.96    0.22   0.000   0.200   0.000    0.00
  16.500   28.11   -2.58   -0.15   0.000   0.200   0.000    0.00
  16.550   27.57   -2.65    1.69   0.000   0.200   0.000    0.00
  16.600   29.10   -5.56    1.72   0.000   0.200   0.000    0.00
  16.650   29.30   -7.71    0.88   0.000   0.200   0.000    0.00
  16.700   29.79   -7.25    1.61   0.000   0.200   0.000    0.00
  16.750   29.37   -6.46    1.59   0.000   0.200   0.000    0.00
  16.800   29.89   -4.45    2.11   0.000   0.200   0.000    0.00
  16.850   29.61   -3.91    0.67   0.000   0.200   0.000    0.00
  16.900   29.87   -5.33   -0.24   0.000   0.200   0.000    0.00
  16.950   30.15   -6.30   -0.22   0.000   0.200   0.000    0.00
  17.000   29.22   -6.45    1.41   0.000   0.200   0.000    0.00
  17.050   28.66   -4.95    1.40   0.000   0.200   0.000    0.00
  17.100   28.71   -5.52    0.53   0.000   0.200   0.000    0.00
  17.150   28.82   -5.81    1.62   0.000   0.200   0.000    0.00
  17.200   29.45   -5.79    1.33   0.000   0.200   0.000    0.00
  17.250   28.60   -4.32    1.89   0.000   0.200   0.000    0.00
  17.300   29.21   -3.12    1.34   0.000   0.200   0.000    0.00
  17.350   29.59   -3.41    1.51   0.000   0.200   0.000    0.00
  17.400   30.49   -3.25    1.07   0.000   0.200   0.000    0.00
  17.450   30.76   -2.94    0.25   0.000   0.200   0.000    0.00
  17.500   28.91   -3.63    0.14   0.000   0.200   0.000    0.00
  17.550   29.21   -2.60   -0.40   0.000   0.200   0.000    0.00
  17.600   29.10   -1.64    0.03   0.000   0.200   0.000    0.00
  17.650   28.94   -1.42   -0.84   0.000   0.200   0.000    0.00
  17.700   27.90   -2.32   -2.83   0.000   0.200   0.000    0.00
  17.750   27.92   -2.45   -2.49   0.000   0.200   0.000    0.00
  17.800   28.11   -2.41   -1.91   0.000   0.200   0.000    0.00
  17.850   28.05   -5.89   -0.38   0.000   0.200   0.000    0.00
  17.900   28.16   -4.12    0.75   0.000   0.200   0.000    0.00
  17.950   29.68   -3.36    1.95   0.000   0.200   0.000    0.00
  18.000   28.59   -4.03    1.92   0.000   0.200   0.000    0.00
  18.050   27.73   -7.72    2.54   0.000   0.200   0.000    0.00
  18.100   27.82   -8.81    2.48   0.000   0.200   0.000    0.00
  18.150   27.26   -8.31    3.15   0.000   0.200   0.000    0.00
  18.200   28.04   -7.76    2.41   0.000   0.200   0.000    0.00
  18.250   30.26   -8.00    1.45   0.000   0.200   0.000    0.00
  18.300   30.32   -8.20    2.63   0.000   0.200   0.000    0.00
  18.350   30.76   -9.35    3.62   0.000   0.200   0.000    0.00
  18.400   30.54  -13.08    3.68   0.000   0.200   0.000    0.00
  18.450   30.56  -10.54    4.69   0.000   0.200   0.000    0.00
  18.500   31.60   -9.25    3.56   0.000   0.200   0.000    0.00
  18.550   30.32  -10.20    3.02   0.000   0.200   0.000    0.00
  18.600   31.40   -9.20    3.71   0.000   0.200   0.000    0.00
  18.650   31.52   -9.09    4.64   0.000   0.200   0.000    0.00
  18.700   31.09  -10.28    2.49   0.000   0.200   0.000    0.00
  18.750   31.59   -8.14    2.07   0.000   0.200   0.000    0.00
  18.800   30.67   -8.94    2.11   0.000   0.200   0.000    0.00
  18.850   29.96   -7.18    1.10   0.000   0.200   0.000    0.00
  18.900   28.80  -10.00    2.52   0.000   0.200   0.000    0.00
  18.950   28.14   -7.68    2.50   0.000   0.200   0.000    0.00
  19.000   28.13   -4.09    2.11   0.000   0.200   0.000    0.00
  19.050   29.00   -6.22    1.26   0.000   0.200   0.000    0.00
  19.100   29.07   -3.69    0.28   0.000   0.200   0.000    0.00
  19.150   29.49   -3.88    0.53   0.000   0.200   0.000    0.00
  19.200   30.33   -3.83    1.19   0.000   0.200   0.000    0.00
  19.250   31.09   -3.35    1.25   0.000   0.200   0.000    0.00
  19.300   29.73   -4.47    0.49   0.000   0.200   0.000    0.00
  19.350   29.73   -5.78   -0.86   0.000   0.200   0.000    0.00
  19.400   29.41   -4.46    0.91   0.000   0.200   0.000    0.00
  19.450   29.72   -5.45    1.31   0.000   0.200   0.000    0.00
  19.500   30.58   -4.95    1.86   0.000   0.200   0.000    0.00
  19.550   30.34   -3.43    2.84   0.000   0.200   0.000    0.00
  19.600   31.56   -4.10    2.22   0.000   0.200   0.000    0.00
  19.650   31.52   -4.73    2.21   0.000   0.200   0.000    0.00
  19.700   31.03   -1.53    2.37   0.000   0.200   0.000    0.00
  19.750   31.10   -1.90    2.48   0.000   0.200   0.000    0.00
  19.800   32.77   -3.80    1.49   0.000   0.200   0.000    0.00
  19.850   32.10   -3.67    1.68   0.000   0.200   0.000    0.00
  19.900   32.29   -4.96    0.38   0.000   0.200   0.000    0.00
  19.950   32.06   -4.52   -0.10   0.000   0.200   0.000    0.00
  20.000   32.65   -5.93    0.36   0.000   0.200   0.000    0.00
  20.050   31.69   -5.96   -0.50   0.000   0.200   0.000    0.00
  20.100   31.82   -4.06   -0.09   0.000   0.200   0.000    0.00
  20.150   31.19   -4.71    0.83   0.000   0.200   0.000    0.00
  20.200   31.11   -4.16    1.95   0.000   0.200   0.000    0.00
  20.250   31.52   -5.82   -0.07   0.000   0.200   0.000    0.00
  20.300   32.67   -4.53    0.73   0.000   0.200   0.000    0.00
  20.350   33.30   -5.31    1.60   0.000   0.200   0.000    0.00
  20.400   33.38   -5.28    1.62   0.000   0.200   0.000    0.00
  20.450   32.58   -3.22    3.24   0.000   0.200   0.000    0.00
  20.500   33.03   -2.79    2.83   0.000   0.200   0.000    0.00
  20.550   34.05   -5.44    2.25   0.000   0.200   0.000    0.00
  20.600   34.58   -6.86    2.98   0.000   0.200   0.000    0.00
  20.650   34.07   -7.62    2.68   0.000   0.200   0.000    0.00
  20.700   34.22   -6.55    2.31   0.000   0.200   0.000    0.00
  20.750   34.45   -5.15    3.21   0.000   0.200   0.000    0.00
  20.800   34.43   -6.29    2.74   0.000   0.200   0.000    0.00
  20.850   33.79   -5.64    1.68   0.000   0.200   0.000    0.00
  20.900   34.29   -5.28    1.36   0.000   0.200   0.000    0.00
  20.950   34.86   -5.94    0.75   0.000   0.200   0.000    0.00
  21.000   33.35   -4.31    0.81   0.000   0.200   0.000    0.00
  21.050   32.07   -4.50   -0.32   0.000   0.200   0.000    0.00
  21.100   31.53   -5.03   -0.14   0.000   0.200   0.000    0.00
  21.150   32.10   -6.48   -1.88   0.000   0.200   0.000    0.00
  21.200   31.52   -7.46   -1.24   0.000   0.200   0.000    0.00
  21.250   31.96   -7.78   -0.99   0.000   0.200   0.000    0.00
  21.300   32.81   -9.30   -0.78   0.000   0.200   0.000    0.00
  21.350   33.33   -9.97   -0.13   0.000   0.200   0.000    0.00
  21.400   32.72   -8.43    0.02   0.000   0.200   0.000    0.00
  21.450   32.60  -10.86    0.39   0.000   0.200   0.000    0.00
  21.500   31.89  -12.61    1.16   0.000   0.200   0.000    0.00
  21.550   31.60  -10.12    0.66   0.000   0.200   0.000    0.00
  21.600   32.50  -10.47    0.53   0.000   0.200   0.000    0.00
  21.650   33.54  -11.42    1.16   0.000   0.200   0.000    0.00
  21.700   33.55  -10.88    0.26   0.000   0.200   0.000    0.00
  21.750   32.58   -9.95   -0.06   0.000   0.200   0.000    0.00
  21.800   32.66   -9.70    0.32   0.000   0.200   0.000    0.00
  21.850   33.80   -8.51    0.70   0.000   0.200   0.000    0.00
  21.900   35.76   -8.09   -0.84   0.000   0.200   0.000    0.00
  21.950   34.84   -8.61   -1.16   0.000   0.200   0.000    0.00
  22.000   33.84   -8.28   -1.77   0.000   0.200   0.000    0.00
  22.050   32.61   -8.37   -1.86   0.000   0.200   0.000    0.00
  22.100   32.11   -8.38   -0.98   0.000   0.200   0.000    0.00
  22.150   31.20  -10.79   -0.83   0.000   0.200   0.000    0.00
  22.200   31.89   -9.89   -0.68   0.000   0.200   0.000    0.00
  22.250   30.36   -8.10   -1.75   0.000   0.200   0.000    0.00
  22.300   29.88   -9.45   -1.12   0.000   0.200   0.000    0.00
  22.350   30.13   -9.39   -0.36   0.000   0.200   0.000    0.00