! This hub-height wind-speed file was generated by TurbSim (v1.06.00, 21-Sep-2012) on 03-Feb-2018 at 23:35:33.
!
! The requested statistics for this data were:
!    Mean Total Wind Speed =   13.000 m/s
!    Turbulence Intensity  =   24.640%
!
!   Time  HorSpd  WndDir  VerSpd  HorShr  VerShr  LnVShr  GstSpd
!  (sec)   (m/s)   (deg)   (m/s)     (-)     (-)     (-)   (m/s)
   0.000   16.65   -4.34    1.22   0.000   0.200   0.000    0.00
   0.050   17.17   -2.27    1.55   0.000   0.200   0.000    0.00
   0.100   16.53   -0.65    1.38   0.000   0.200   0.000    0.00
   0.150   17.17   -1.62    1.63   0.000   0.200   0.000    0.00
   0.200   17.50   -2.89    1.08   0.000   0.200   0.000    0.00
   0.250   18.00   -0.49    1.67   0.000   0.200   0.000    0.00
   0.300   18.77    2.02    1.62   0.000   0.200   0.000    0.00
   0.350   18.80   -0.88    2.21   0.000   0.200   0.000    0.00
   0.400   19.86   -1.56    2.69   0.000   0.200   0.000    0.00
   0.450   19.48   -1.01    2.72   0.000   0.200   0.000    0.00
   0.500   18.77    1.12    2.79   0.000   0.200   0.000    0.00
   0.550   18.69   -1.18    3.38   0.000   0.200   0.000    0.00
   0.600   18.32   -0.33    3.77   0.000   0.200   0.000    0.00
   0.650   18.09    2.33    3.36   0.000   0.200   0.000    0.00
   0.700   18.12   -1.37    2.75   0.000   0.200   0.000    0.00
   0.750   18.02   -1.89    2.87   0.000   0.200   0.000    0.00
   0.800   17.50   -0.77    2.05   0.000   0.200   0.000    0.00
   0.850   18.05    1.17    2.22   0.000   0.200   0.000    0.00
   0.900   18.23    3.77    1.79   0.000   0.200   0.000    0.00
   0.950   18.53    3.16    2.20   0.000   0.200   0.000    0.00
   1.000   17.21    2.89    0.60   0.000   0.200   0.000    0.00
   1.050   16.34   -2.81    0.55   0.000   0.200   0.000    0.00
   1.100   17.22   -4.23    0.35   0.000   0.200   0.000    0.00
   1.150   17.13   -2.87    0.36   0.000   0.200   0.000    0.00
   1.200   16.50   -4.19   -0.19   0.000   0.200   0.000    0.00
   1.250   16.04   -7.47   -0.09   0.000   0.200   0.000    0.00
   1.300   16.37   -7.37    0.50   0.000   0.200   0.000    0.00
   1.350   15.54   -8.24   -0.83   0.000   0.200   0.000    0.00
   1.400   14.96   -8.16   -0.89   0.000   0.200   0.000    0.00
   1.450   15.05   -8.40   -0.94   0.000   0.200   0.000    0.00
   1.500   16.06   -9.41   -0.95   0.000   0.200   0.000    0.00
   1.550   15.76   -7.76   -0.93   0.000   0.200   0.000    0.00
   1.600   16.05   -9.94   -0.71   0.000   0.200   0.000    0.00
   1.650   15.78   -7.39   -0.04   0.000   0.200   0.000    0.00
   1.700   15.89   -8.39   -0.15   0.000   0.200   0.000    0.00
   1.750   15.57   -7.53    0.57   0.000   0.200   0.000    0.00
   1.800   15.86   -6.78   -0.68   0.000   0.200   0.000    0.00
   1.850   16.28  -10.35   -0.05   0.000   0.200   0.000    0.00
   1.900   16.63   -8.56   -0.08   0.000   0.200   0.000    0.00
   1.950   16.62   -9.13   -1.44   0.000   0.200   0.000    0.00
   2.000   16.49   -8.79   -2.03   0.000   0.200   0.000    0.00
   2.050   16.35   -6.63   -1.80   0.000   0.200   0.000    0.00
   2.100   17.78   -6.82   -1.62   0.000   0.200   0.000    0.00
   2.150   17.36   -6.36   -1.41   0.000   0.200   0.000    0.00
   2.200   17.04   -5.84   -0.87   0.000   0.200   0.000    0.00
   2.250   17.41   -7.52   -0.83   0.000   0.200   0.000    0.00
   2.300   16.75   -8.83   -0.24   0.000   0.200   0.000    0.00
   2.350   16.13   -9.30   -0.06   0.000   0.200   0.000    0.00
   2.400   15.95   -7.89    0.55   0.000   0.200   0.000    0.00
   2.450   16.02   -8.91    0.37   0.000   0.200   0.000    0.00
   2.500   15.84   -5.08    0.07   0.000   0.200   0.000    0.00
   2.550   16.24   -2.84    0.03   0.000   0.200   0.000    0.00
   2.600   16.88   -3.38    0.06   0.000   0.200   0.000    0.00
   2.650   17.26   -2.27    0.30   0.000   0.200   0.000    0.00
   2.700   17.85   -2.70   -0.20   0.000   0.200   0.000    0.00
   2.750   17.30   -2.73    0.05   0.000   0.200   0.000    0.00
   2.800   18.20   -2.43    1.34   0.000   0.200   0.000    0.00
   2.850   17.32   -0.50    2.21   0.000   0.200   0.000    0.00
   2.900   17.61    1.04    1.99   0.000   0.200   0.000    0.00
   2.950   17.00   -0.02    2.91   0.000   0.200   0.000    0.00
   3.000   16.65    2.41    1.74   0.000   0.200   0.000    0.00
   3.050   16.06    5.43    1.31   0.000   0.200   0.000    0.00
   3.100   15.63    7.45    1.76   0.000   0.200   0.000    0.00
   3.150   16.33    8.60    1.47   0.000   0.200   0.000    0.00
   3.200   16.81    4.78    0.82   0.000   0.200   0.000    0.00
   3.250   16.49    2.63    1.27   0.000   0.200   0.000    0.00
   3.300   16.72    2.04    2.27   0.000   0.200   0.000    0.00
   3.350   17.07    3.82    2.36   0.000   0.200   0.000    0.00
   3.400   17.14    3.81    1.87   0.000   0.200   0.000    0.00
   3.450   16.54    3.06    1.91   0.000   0.200   0.000    0.00
   3.500   15.65    1.50    2.52   0.000   0.200   0.000    0.00
   3.550   15.82    0.05    1.94   0.000   0.200   0.000    0.00
   3.600   15.53   -1.25    1.40   0.000   0.200   0.000    0.00
   3.650   16.09   -1.98    1.16   0.000   0.200   0.000    0.00
   3.700   16.70   -2.64    1.02   0.000   0.200   0.000    0.00
   3.750   15.94   -1.33    0.45   0.000   0.200   0.000    0.00
   3.800   16.53   -2.12    0.40   0.000   0.200   0.000    0.00
   3.850   16.83   -1.48    0.54   0.000   0.200   0.000    0.00
   3.900   16.56    0.36    0.51   0.000   0.200   0.000    0.00
   3.950   16.93   -0.18    0.95   0.000   0.200   0.000    0.00
   4.000   17.45    0.36    1.60   0.000   0.200   0.000    0.00
   4.050   17.24   -1.53    0.26   0.000   0.200   0.000    0.00
   4.100   16.16   -2.06    0.27   0.000   0.200   0.000    0.00
   4.150   15.91   -0.55    0.23   0.000   0.200   0.000    0.00
   4.200   16.58    2.65    0.42   0.000   0.200   0.000    0.00
   4.250   16.92    0.33    0.28   0.000   0.200   0.000    0.00
   4.300   16.36   -1.35   -0.05   0.000   0.200   0.000    0.00
   4.350   16.76   -2.72   -0.43   0.000   0.200   0.000    0.00
   4.400   16.28   -1.18   -0.46   0.000   0.200   0.000    0.00
   4.450   16.04   -1.14    0.10   0.000   0.200   0.000    0.00
   4.500   16.36    0.33    0.66   0.000   0.200   0.000    0.00
   4.550   15.63   -0.42    0.36   0.000   0.200   0.000    0.00
   4.600   16.22   -0.68    0.37   0.000   0.200   0.000    0.00
   4.650   16.70   -2.16   -0.12   0.000   0.200   0.000    0.00
   4.700   16.66   -1.74    0.15   0.000   0.200   0.000    0.00
   4.750   17.87   -2.78    1.35   0.000   0.200   0.000    0.00
   4.800   18.18   -0.94    0.46   0.000   0.200   0.000    0.00
   4.850   18.94   -2.33   -0.18   0.000   0.200   0.000    0.00
   4.900   18.36   -2.03    0.68   0.000   0.200   0.000    0.00
   4.950   18.32   -5.04    0.69   0.000   0.200   0.000    0.00
   5.000   18.75   -6.40    2.11   0.000   0.200   0.000    0.00
   5.050   18.89   -5.51    2.49   0.000   0.200   0.000    0.00
   5.100   19.36   -5.54    3.19   0.000   0.200   0.000    0.00
   5.150   19.60   -2.63    2.25   0.000   0.200   0.000    0.00
   5.200   19.33   -7.12    2.82   0.000   0.200   0.000    0.00
   5.250   19.20   -6.25    1.83   0.000   0.200   0.000    0.00
   5.300   18.87   -5.77    1.44   0.000   0.200   0.000    0.00
   5.350   19.16   -5.66    1.61   0.000   0.200   0.000    0.00
   5.400   18.75   -5.87    1.88   0.000   0.200   0.000    0.00
   5.450   19.22   -6.94    1.28   0.000   0.200   0.000    0.00
   5.500   19.05   -6.76    0.77   0.000   0.200   0.000    0.00
   5.550   18.04   -7.42    0.16   0.000   0.200   0.000    0.00
   5.600   17.62   -6.65    1.15   0.000   0.200   0.000    0.00
   5.650   17.47   -7.76    1.09   0.000   0.200   0.000    0.00
   5.700   17.37   -6.15    0.40   0.000   0.200   0.000    0.00
   5.750   18.28   -4.85   -0.02   0.000   0.200   0.000    0.00
   5.800   17.14   -8.07    0.21   0.000   0.200   0.000    0.00
   5.850   17.89   -7.99    0.43   0.000   0.200   0.000    0.00
   5.900   18.29   -7.67    1.31   0.000   0.200   0.000    0.00
   5.950   18.06   -7.10    1.58   0.000   0.200   0.000    0.00
   6.000   17.83   -4.59    1.65   0.000   0.200   0.000    0.00
   6.050   17.19   -1.67    1.57   0.000   0.200   0.000    0.00
   6.100   17.46   -3.11    1.46   0.000   0.200   0.000    0.00
   6.150   17.84   -3.91    1.19   0.000   0.200   0.000    0.00
   6.200   17.38   -4.66    1.03   0.000   0.200   0.000    0.00
   6.250   18.00   -7.66    0.87   0.000   0.200   0.000    0.00
   6.300   16.94   -5.80    0.98   0.000   0.200   0.000    0.00
   6.350   16.55   -5.66    1.68   0.000   0.200   0.000    0.00
   6.400   16.38   -9.38    2.26   0.000   0.200   0.000    0.00
   6.450   16.83   -9.07    1.85   0.000   0.200   0.000    0.00
   6.500   17.99  -10.32    1.25   0.000   0.200   0.000    0.00
   6.550   17.48  -10.57    0.77   0.000   0.200   0.000    0.00
   6.600   17.32   -8.69    0.03   0.000   0.200   0.000    0.00
   6.650   16.61  -11.64   -0.76   0.000   0.200   0.000    0.00
   6.700   16.32  -10.87   -0.59   0.000   0.200   0.000    0.00
   6.750   16.68   -6.36    0.20   0.000   0.200   0.000    0.00
   6.800   17.79   -9.30    0.75   0.000   0.200   0.000    0.00
   6.850   17.14  -10.51    1.44   0.000   0.200   0.000    0.00
   6.900   16.95  -11.30    0.39   0.000   0.200   0.000    0.00
   6.950   16.68   -9.78   -0.29   0.000   0.200   0.000    0.00
   7.000   17.65   -7.94   -0.04   0.000   0.200   0.000    0.00
   7.050   17.43   -6.60    1.01   0.000   0.200   0.000    0.00
   7.100   17.36   -6.29    0.58   0.000   0.200   0.000    0.00
   7.150   16.90   -7.80    0.08   0.000   0.200   0.000    0.00
   7.200   16.36   -7.60    0.19   0.000   0.200   0.000    0.00
   7.250   15.45   -8.00   -0.73   0.000   0.200   0.000    0.00
   7.300   14.34   -8.49    0.36   0.000   0.200   0.000    0.00
   7.350   14.01  -10.91   -0.09   0.000   0.200   0.000    0.00
   7.400   13.98   -9.03    0.02   0.000   0.200   0.000    0.00
   7.450   13.58   -4.98   -0.32   0.000   0.200   0.000    0.00
   7.500   13.82   -3.87    0.37   0.000   0.200   0.000    0.00
   7.550   14.00   -7.44    0.58   0.000   0.200   0.000    0.00
   7.600   14.32   -3.94    0.33   0.000   0.200   0.000    0.00
   7.650   14.96   -4.96   -0.51   0.000   0.200   0.000    0.00
   7.700   15.64   -5.52   -0.98   0.000   0.200   0.000    0.00
   7.750   16.02   -5.03   -1.06   0.000   0.200   0.000    0.00
   7.800   15.67   -5.31   -1.13   0.000   0.200   0.000    0.00
   7.850   14.94   -6.54   -1.68   0.000   0.200   0.000    0.00
   7.900   14.40   -6.97   -2.19   0.000   0.200   0.000    0.00
   7.950   15.03   -8.49   -1.70   0.000   0.200   0.000    0.00
   8.000   16.18   -9.39   -1.17   0.000   0.200   0.000    0.00
   8.050   16.88  -11.93   -1.42   0.000   0.200   0.000    0.00
   8.100   16.68  -13.37   -1.49   0.000   0.200   0.000    0.00
   8.150   17.02  -16.10   -2.44   0.000   0.200   0.000    0.00
   8.200   17.79  -16.85   -2.33   0.000   0.200   0.000    0.00
   8.250   17.10  -14.77   -3.83   0.000   0.200   0.000    0.00
   8.300   17.21  -13.84   -4.20   0.000   0.200   0.000    0.00
   8.350   17.59  -14.85   -3.78   0.000   0.200   0.000    0.00
   8.400   18.15  -14.44   -3.04   0.000   0.200   0.000    0.00
   8.450   18.18  -14.17   -3.10   0.000   0.200   0.000    0.00
   8.500   18.06  -15.41   -2.83   0.000   0.200   0.000    0.00
   8.550   18.44  -17.70   -2.43   0.000   0.200   0.000    0.00
   8.600   17.98  -19.35   -2.44   0.000   0.200   0.000    0.00
   8.650   18.67  -16.99   -1.72   0.000   0.200   0.000    0.00
   8.700   18.50  -12.68   -2.48   0.000   0.200   0.000    0.00
   8.750   17.95  -11.52   -2.36   0.000   0.200   0.000    0.00
   8.800   17.86  -12.77   -2.51   0.000   0.200   0.000    0.00
   8.850   18.57  -13.18   -0.89   0.000   0.200   0.000    0.00
   8.900   18.42  -14.42   -1.00   0.000   0.200   0.000    0.00
   8.950   18.31  -15.12   -0.93   0.000   0.200   0.000    0.00
   9.000   17.70  -16.27   -1.29   0.000   0.200   0.000    0.00
   9.050   17.20  -15.12   -0.30   0.000   0.200   0.000    0.00
   9.100   17.33  -11.07    0.18   0.000   0.200   0.000    0.00
   9.150   17.68   -9.22   -0.18   0.000   0.200   0.000    0.00
   9.200   17.96  -10.39   -0.25   0.000   0.200   0.000    0.00
   9.250   18.49  -11.59   -0.49   0.000   0.200   0.000    0.00
   9.300   18.85  -14.95    0.33   0.000   0.200   0.000    0.00
   9.350   17.95  -15.07    0.05   0.000   0.200   0.000    0.00
   9.400   18.11  -15.46   -0.26   0.000   0.200   0.000    0.00
   9.450   17.56  -18.34    0.30   0.000   0.200   0.000    0.00
   9.500   17.47  -19.84   -0.19   0.000   0.200   0.000    0.00
   9.550   17.85  -19.92   -0.72   0.000   0.200   0.000    0.00
   9.600   16.73  -20.89   -1.16   0.000   0.200   0.000    0.00
   9.650   16.63  -20.82   -0.52   0.000   0.200   0.000    0.00
   9.700   16.98  -20.09    1.00   0.000   0.200   0.000    0.00
   9.750   17.02  -20.64    0.99   0.000   0.200   0.000    0.00
   9.800   17.10  -20.16    1.06   0.000   0.200   0.000    0.00
   9.850   17.35  -18.72    0.09   0.000   0.200   0.000    0.00
   9.900   17.21  -16.24    0.08   0.000   0.200   0.000    0.00
   9.950   17.13  -13.21    0.64   0.000   0.200   0.000    0.00
  10.000   17.32  -11.16    1.07   0.000   0.200   0.000    0.00
  10.050   17.83  -10.26    1.36   0.000   0.200   0.000    0.00
  10.100   18.04  -11.13    1.47   0.000   0.200   0.000    0.00
  10.150   17.62  -10.78    1.29   0.000   0.200   0.000    0.00
  10.200   18.15  -13.96    1.12   0.000   0.200   0.000    0.00
  10.250   17.69  -11.72    0.65   0.000   0.200   0.000    0.00
  10.300   18.03  -10.51    1.17   0.000   0.200   0.000    0.00
  10.350   17.97  -13.09    0.20   0.000   0.200   0.000    0.00
  10.400   18.67  -14.87    0.45   0.000   0.200   0.000    0.00
  10.450   19.09  -15.61    0.02   0.000   0.200   0.000    0.00
  10.500   18.44  -16.72   -0.87   0.000   0.200   0.000    0.00
  10.550   18.31  -16.43   -0.47   0.000   0.200   0.000    0.00
  10.600   17.62  -15.04   -0.72   0.000   0.200   0.000    0.00
  10.650   17.85  -16.43   -1.39   0.000   0.200   0.000    0.00
  10.700   17.37  -15.31   -0.79   0.000   0.200   0.000    0.00
  10.750   17.38  -14.80   -0.88   0.000   0.200   0.000    0.00
  10.800   17.49  -15.29   -0.41   0.000   0.200   0.000    0.00
  10.850   17.17  -15.26   -0.78   0.000   0.200   0.000    0.00
  10.900   18.72  -17.01   -0.52   0.000   0.200   0.000    0.00
  10.950   18.66  -16.79    0.38   0.000   0.200   0.000    0.00
  11.000   19.36  -16.28   -0.15   0.000   0.200   0.000    0.00
  11.050   19.82  -18.03    0.21   0.000   0.200   0.000    0.00
  11.100   19.28  -16.01    0.24   0.000   0.200   0.000    0.00
  11.150   18.22  -15.71   -0.21   0.000   0.200   0.000    0.00
  11.200   18.24  -10.13    0.51   0.000   0.200   0.000    0.00
  11.250   18.03   -9.87    1.71   0.000   0.200   0.000    0.00
  11.300   19.00  -11.31    1.57   0.000   0.200   0.000    0.00
  11.350   18.90  -10.28    0.75   0.000   0.200   0.000    0.00
  11.400   18.49  -11.26    0.48   0.000   0.200   0.000    0.00
  11.450   18.80   -8.07    0.48   0.000   0.200   0.000    0.00
  11.500   18.71   -5.96    1.30   0.000   0.200   0.000    0.00
  11.550   18.33   -6.10    1.92   0.000   0.200   0.000    0.00
  11.600   17.80   -8.97    2.32   0.000   0.200   0.000    0.00
  11.650   17.86   -7.71    1.87   0.000   0.200   0.000    0.00
  11.700   17.86  -10.40    1.50   0.000   0.200   0.000    0.00
  11.750   18.21  -12.64    0.79   0.000   0.200   0.000    0.00
  11.800   17.85  -12.34    1.57   0.000   0.200   0.000    0.00
  11.850   17.74  -11.55    1.22   0.000   0.200   0.000    0.00
  11.900   18.24  -14.47    0.84   0.000   0.200   0.000    0.00
  11.950   18.12  -15.85   -0.13   0.000   0.200   0.000    0.00
  12.000   18.12  -17.14    0.09   0.000   0.200   0.000    0.00
  12.050   17.83  -19.05    0.70   0.000   0.200   0.000    0.00
  12.100   18.48  -20.11    0.13   0.000   0.200   0.000    0.00
  12.150   17.45  -18.39   -1.24   0.000   0.200   0.000    0.00
  12.200   17.22  -17.12    0.25   0.000   0.200   0.000    0.00
  12.250   17.16  -18.60    0.96   0.000   0.200   0.000    0.00
  12.300   17.82  -16.41    0.27   0.000   0.200   0.000    0.00
  12.350   18.49  -16.97    0.90   0.000   0.200   0.000    0.00
  12.400   18.31  -18.75    0.83   0.000   0.200   0.000    0.00
  12.450   17.15  -17.52    0.85   0.000   0.200   0.000    0.00
  12.500   17.56  -12.71    1.38   0.000   0.200   0.000    0.00
  12.550   18.09  -12.47    1.49   0.000   0.200   0.000    0.00
  12.600   16.87  -10.74    1.53   0.000   0.200   0.000    0.00
  12.650   16.39  -12.68    1.77   0.000   0.200   0.000    0.00
  12.700   16.30  -11.34    1.83   0.000   0.200   0.000    0.00
  12.750   15.98  -11.49    1.37   0.000   0.200   0.000    0.00
  12.800   16.52   -9.14    1.48   0.000   0.200   0.000    0.00
  12.850   16.90   -8.95    1.82   0.000   0.200   0.000    0.00
  12.900   17.28  -10.25    0.74   0.000   0.200   0.000    0.00
  12.950   17.35  -10.94   -0.22   0.000   0.200   0.000    0.00
  13.000   18.03   -8.32   -0.09   0.000   0.200   0.000    0.00
  13.050   18.34   -8.46    1.05   0.000   0.200   0.000    0.00
  13.100   17.95   -7.93    1.75   0.000   0.200   0.000    0.00
  13.150   18.09   -6.70    2.36   0.000   0.200   0.000    0.00
  13.200   18.79   -8.61    2.27   0.000   0.200   0.000    0.00
  13.250   18.10  -10.76    2.75   0.000   0.200   0.000    0.00
  13.300   18.18  -11.22    2.93   0.000   0.200   0.000    0.00
  13.350   18.06   -9.83    3.40   0.000   0.200   0.000    0.00
  13.400   18.84  -12.55    2.54   0.000   0.200   0.000    0.00
  13.450   19.13  -16.36    2.64   0.000   0.200   0.000    0.00
  13.500   18.81  -13.81    1.98   0.000   0.200   0.000    0.00
  13.550   19.12  -14.49    1.52   0.000   0.200   0.000    0.00
  13.600   18.53  -12.62    0.94   0.000   0.200   0.000    0.00
  13.650   18.67  -13.33    0.57   0.000   0.200   0.000    0.00
  13.700   18.65  -15.39    1.23   0.000   0.200   0.000    0.00
  13.750   17.82  -17.16    1.71   0.000   0.200   0.000    0.00
  13.800   17.86  -17.86    1.15   0.000   0.200   0.000    0.00
  13.850   17.73  -19.25    0.69   0.000   0.200   0.000    0.00
  13.900   18.34  -21.50   -0.27   0.000   0.200   0.000    0.00
  13.950   19.00  -19.05   -0.62   0.000   0.200   0.000    0.00
  14.000   19.50  -19.05   -0.43   0.000   0.200   0.000    0.00
  14.050   19.42  -17.56    0.08   0.000   0.200   0.000    0.00
  14.100   19.97  -19.27   -0.94   0.000   0.200   0.000    0.00
  14.150   20.25  -18.08   -0.34   0.000   0.200   0.000    0.00
  14.200   19.65  -18.33   -0.70   0.000   0.200   0.000    0.00
  14.250   19.01  -22.14   -0.80   0.000   0.200   0.000    0.00
  14.300   19.15  -19.59   -1.81   0.000   0.200   0.000    0.00
  14.350   19.40  -17.16   -1.52   0.000   0.200   0.000    0.00
  14.400   19.01  -16.44   -1.02   0.000   0.200   0.000    0.00
  14.450   19.04  -13.06   -2.03   0.000   0.200   0.000    0.00
  14.500   19.40  -14.24   -1.71   0.000   0.200   0.000    0.00
  14.550   19.49  -12.93   -0.83   0.000   0.200   0.000    0.00
  14.600   18.49  -12.48   -1.16   0.000   0.200   0.000    0.00
  14.650   18.46  -11.90   -0.31   0.000   0.200   0.000    0.00
  14.700   18.60  -11.74   -0.73   0.000   0.200   0.000    0.00
  14.750   19.62   -7.95   -0.23   0.000   0.200   0.000    0.00
  14.800   19.29   -9.16    0.44   0.000   0.200   0.000    0.00
  14.850   18.42   -8.71    0.27   0.000   0.200   0.000    0.00
  14.900   18.45   -9.40    0.17   0.000   0.200   0.000    0.00
  14.950   18.62   -8.24    1.21   0.000   0.200   0.000    0.00
  15.000   17.83   -7.84    1.19   0.000   0.200   0.000    0.00
  15.050   18.15  -10.14    0.49   0.000   0.200   0.000    0.00
  15.100   18.03   -8.68    0.30   0.000   0.200   0.000    0.00
  15.150   17.37   -6.98   -0.18   0.000   0.200   0.000    0.00
  15.200   17.23   -7.60   -0.14   0.000   0.200   0.000    0.00
  15.250   16.95   -9.44    0.18   0.000   0.200   0.000    0.00
  15.300   17.87  -10.02   -0.41   0.000   0.200   0.000    0.00
  15.350   17.57   -7.69   -0.98   0.000   0.200   0.000    0.00
  15.400   17.63   -6.47   -0.93   0.000   0.200   0.000    0.00
  15.450   17.27   -6.19   -0.94   0.000   0.200   0.000    0.00
  15.500   16.51   -8.77   -0.39   0.000   0.200   0.000    0.00
  15.550   16.68   -8.82   -0.84   0.000   0.200   0.000    0.00
  15.600   16.31   -9.55   -0.76   0.000   0.200   0.000    0.00
  15.650   15.48   -8.08   -0.87   0.000   0.200   0.000    0.00
  15.700   15.34   -9.12    0.92   0.000   0.200   0.000    0.00
  15.750   15.36  -10.75    0.59   0.000   0.200   0.000    0.00
  15.800   15.87  -13.32    0.78   0.000   0.200   0.000    0.00
  15.850   16.64  -11.66   -0.06   0.000   0.200   0.000    0.00
  15.900   16.70  -13.30   -0.33   0.000   0.200   0.000    0.00
  15.950   15.94  -17.51   -0.53   0.000   0.200   0.000    0.00
  16.000   15.52  -16.15    0.23   0.000   0.200   0.000    0.00
  16.050   15.37  -15.42    0.21   0.000   0.200   0.000    0.00
  16.100   15.84  -13.13   -0.01   0.000   0.200   0.000    0.00
  16.150   16.03  -10.02    0.09   0.000   0.200   0.000    0.00
  16.200   15.98  -11.42   -0.88   0.000   0.200   0.000    0.00
  16.250   16.44  -12.23   -0.70   0.000   0.200   0.000    0.00
  16.300   16.46  -12.52    0.05   0.000   0.200   0.000    0.00
  16.350   16.95   -8.82   -0.45   0.000   0.200   0.000    0.00
  16.400   15.63   -6.01   -0.48   0.000   0.200   0.000    0.00
  16.450   15.91   -8.37    0.07   0.000   0.200   0.000    0.00
  16.500   16.42   -8.92    0.36   0.000   0.200   0.000    0.00
  16.550   16.01   -7.61    1.40   0.000   0.200   0.000    0.00
  16.600   15.97   -6.79    0.23   0.000   0.200   0.000    0.00
  16.650   16.09   -7.41    0.36   0.000   0.200   0.000    0.00
  16.700   15.66   -7.04    1.05   0.000   0.200   0.000    0.00
  16.750   14.40   -8.98    0.82   0.000   0.200   0.000    0.00
  16.800   14.59   -9.14    0.53   0.000   0.200   0.000    0.00
  16.850   14.15   -8.64   -0.27   0.000   0.200   0.000    0.00
  16.900   14.01   -8.08   -0.73   0.000   0.200   0.000    0.00
  16.950   13.92   -3.86    0.16   0.000   0.200   0.000    0.00
  17.000   14.10   -3.14   -0.09   0.000   0.200   0.000    0.00
  17.050   14.07   -2.33    0.22   0.000   0.200   0.000    0.00
  17.100   14.57   -8.35    1.38   0.000   0.200   0.000    0.00
  17.150   15.07   -6.43    1.81   0.000   0.200   0.000    0.00
  17.200   14.98   -3.28    1.59   0.000   0.200   0.000    0.00
  17.250   14.55   -4.37    0.37   0.000   0.200   0.000    0.00
  17.300   15.23   -3.92    0.20   0.000   0.200   0.000    0.00
  17.350   15.37   -7.85    0.20   0.000   0.200   0.000    0.00
  17.400   15.17   -9.58   -0.16   0.000   0.200   0.000    0.00
  17.450   15.23   -6.10   -0.27   0.000   0.200   0.000    0.00
  17.500   15.01   -6.23    0.85   0.000   0.200   0.000    0.00
  17.550   14.70   -7.38    0.57   0.000   0.200   0.000    0.00
  17.600   14.69   -7.07    0.63   0.000   0.200   0.000    0.00
  17.650   14.48   -3.45   -0.14   0.000   0.200   0.000    0.00
  17.700   14.48   -2.92    0.84   0.000   0.200   0.000    0.00
  17.750   15.22   -2.06    1.07   0.000   0.200   0.000    0.00
  17.800   15.12   -1.02    1.60   0.000   0.200   0.000    0.00
  17.850   14.15    0.15    1.58   0.000   0.200   0.000    0.00
  17.900   13.71   -0.47    1.67   0.000   0.200   0.000    0.00
  17.950   13.57   -4.97    1.70   0.000   0.200   0.000    0.00
  18.000   13.55   -3.39    2.07   0.000   0.200   0.000    0.00
  18.050   14.19   -2.73    1.47   0.000   0.200   0.000    0.00
  18.100   13.64   -7.10    2.21   0.000   0.200   0.000    0.00
  18.150   13.79  -10.08    2.66   0.000   0.200   0.000    0.00
  18.200   14.21   -9.82    2.01   0.000   0.200   0.000    0.00
  18.250   14.55   -6.89    1.55   0.000   0.200   0.000    0.00
  18.300   14.08   -7.41    1.64   0.000   0.200   0.000    0.00
  18.350   13.75   -7.75    1.95   0.000   0.200   0.000    0.00
  18.400   13.82   -4.25    2.09   0.000   0.200   0.000    0.00
  18.450   14.89   -1.90    2.62   0.000   0.200   0.000    0.00
  18.500   15.01   -2.36    2.83   0.000   0.200   0.000    0.00
  18.550   15.13   -0.30    3.41   0.000   0.200   0.000    0.00
  18.600   15.07   -1.39    2.84   0.000   0.200   0.000    0.00
  18.650   14.26   -3.33    2.18   0.000   0.200   0.000    0.00
  18.700   13.50   -3.61    0.61   0.000   0.200   0.000    0.00
  18.750   13.33   -3.82   -0.23   0.000   0.200   0.000    0.00
  18.800   13.40   -4.22    0.47   0.000   0.200   0.000    0.00
  18.850   13.86   -3.61    1.43   0.000   0.200   0.000    0.00
  18.900   14.47   -5.34    1.16   0.000   0.200   0.000    0.00
  18.950   14.99   -5.63    1.49   0.000   0.200   0.000    0.00
  19.000   15.24   -8.04    1.54   0.000   0.200   0.000    0.00
  19.050   15.46   -6.30    1.23   0.000   0.200   0.000    0.00
  19.100   15.43  -10.76    1.36   0.000   0.200   0.000    0.00
  19.150   15.91  -10.91    0.12   0.000   0.200   0.000    0.00
  19.200   14.90  -12.80   -0.52   0.000   0.200   0.000    0.00
  19.250   15.04  -12.82   -0.54   0.000   0.200   0.000    0.00
  19.300   15.77  -13.07   -0.37   0.000   0.200   0.000    0.00
  19.350   14.65  -13.35   -0.47   0.000   0.200   0.000    0.00
  19.400   13.89  -15.32   -0.69   0.000   0.200   0.000    0.00
  19.450   14.09  -11.62   -2.11   0.000   0.200   0.000    0.00
  19.500   14.00  -11.07   -1.51   0.000   0.200   0.000    0.00
  19.550   13.51   -7.07   -1.29   0.000   0.200   0.000    0.00
  19.600   14.00  -10.98   -0.95   0.000   0.200   0.000    0.00
  19.650   13.53  -12.42   -0.83   0.000   0.200   0.000    0.00
  19.700   13.83  -12.51   -0.21   0.000   0.200   0.000    0.00
  19.750   13.74  -17.79   -0.15   0.000   0.200   0.000    0.00
  19.800   13.94  -16.84   -0.11   0.000   0.200   0.000    0.00
  19.850   14.72  -13.78   -0.17   0.000   0.200   0.000    0.00
  19.900   14.76  -13.71    0.40   0.000   0.200   0.000    0.00
  19.950   14.48  -15.51    0.54   0.000   0.200   0.000    0.00
  20.000   14.54  -17.59    1.36   0.000   0.200   0.000    0.00
  20.050   14.81  -18.39    0.16   0.000   0.200   0.000    0.00
  20.100   15.39  -19.70   -0.32   0.000   0.200   0.000    0.00
  20.150   15.86  -18.42   -0.30   0.000   0.200   0.000    0.00
  20.200   15.81  -19.80   -0.43   0.000   0.200   0.000    0.00
  20.250   16.31  -19.20   -0.07   0.000   0.200   0.000    0.00
  20.300   16.62  -19.79    0.77   0.000   0.200   0.000    0.00
  20.350   15.77  -20.80    1.34   0.000   0.200   0.000    0.00
  20.400   16.30  -18.10    1.30   0.000   0.200   0.000    0.00
  20.450   17.24  -17.97    1.53   0.000   0.200   0.000    0.00
  20.500   17.05  -12.85    0.81   0.000   0.200   0.000    0.00
  20.550   18.05  -14.02    0.21   0.000   0.200   0.000    0.00
  20.600   17.42  -12.23    0.10   0.000   0.200   0.000    0.00
  20.650   17.22  -12.37   -0.70   0.000   0.200   0.000    0.00
  20.700   17.51  -10.75    0.73   0.000   0.200   0.000    0.00
  20.750   17.87  -12.29    0.92   0.000   0.200   0.000    0.00
  20.800   17.61  -10.97    0.85   0.000   0.200   0.000    0.00
  20.850   18.04  -13.36    0.76   0.000   0.200   0.000    0.00
  20.900   17.31  -13.06    1.22   0.000   0.200   0.000    0.00
  20.950   18.13  -10.24    0.84   0.000   0.200   0.000    0.00
  21.000   17.36   -9.31    1.11   0.000   0.200   0.000    0.00
  21.050   17.46   -9.10    1.37   0.000   0.200   0.000    0.00
  21.100   17.10  -11.54    1.89   0.000   0.200   0.000    0.00
  21.150   16.69  -10.59    1.61   0.000   0.200   0.000    0.00
  21.200   16.92  -10.27    0.95   0.000   0.200   0.000    0.00
  21.250   16.75   -8.52    0.06   0.000   0.200   0.000    0.00
  21.300   16.41   -4.65   -0.48   0.000   0.200   0.000    0.00
  21.350   16.28   -3.54    0.70   0.000   0.200   0.000    0.00
  21.400   16.39   -7.26    1.08   0.000   0.200   0.000    0.00
  21.450   17.10   -8.88    1.01   0.000   0.200   0.000    0.00
  21.500   16.45  -12.25    0.09   0.000   0.200   0.000    0.00
  21.550   15.61  -13.19   -0.65   0.000   0.200   0.000    0.00
  21.600   15.05  -16.73   -0.43   0.000   0.200   0.000    0.00
  21.650   15.15  -16.77    0.17   0.000   0.200   0.000    0.00
  21.700   15.35  -16.80   -1.03   0.000   0.200   0.000    0.00
  21.750   15.38  -12.79   -1.15   0.000   0.200   0.000    0.00
  21.800   14.75  -15.16   -0.55   0.000   0.200   0.000    0.00
  21.850   14.90  -18.70   -0.99   0.000   0.200   0.000    0.00
  21.900   13.93  -16.99   -1.91   0.000   0.200   0.000    0.00
  21.950   13.87  -13.48   -1.64   0.000   0.200   0.000    0.00
  22.000   14.12  -10.67   -1.91   0.000   0.200   0.000    0.00
  22.050   13.88  -13.50   -1.39   0.000   0.200   0.000    0.00
  22.100   14.21  -14.41   -0.77   0.000   0.200   0.000    0.00
  22.150   14.47  -17.38   -1.31   0.000   0.200   0.000    0.00
  22.200   14.32  -20.01   -1.29   0.000   0.200   0.000    0.00
  22.250   14.40  -16.94   -1.20   0.000   0.200   0.000    0.00
  22.300   14.11  -14.33   -1.01   0.000   0.200   0.000    0.00
  22.350   13.96  -18.16   -0.72   0.000   0.200   0.000    0.00