! This hub-height wind-speed file was generated by TurbSim (v1.06.00, 21-Sep-2012) on 03-Feb-2018 at 23:29:47.
!
! The requested statistics for this data were:
!    Mean Total Wind Speed =    7.000 m/s
!    Turbulence Intensity  =   38.848%
!
!   Time  HorSpd  WndDir  VerSpd  HorShr  VerShr  LnVShr  GstSpd
!  (sec)   (m/s)   (deg)   (m/s)     (-)     (-)     (-)   (m/s)
   0.000    8.09  -13.28    0.41   0.000   0.200   0.000    0.00
   0.050    8.20  -11.76    0.28   0.000   0.200   0.000    0.00
   0.100    8.33   -8.54    0.18   0.000   0.200   0.000    0.00
   0.150    7.92  -17.11    0.63   0.000   0.200   0.000    0.00
   0.200    7.63  -13.21    1.21   0.000   0.200   0.000    0.00
   0.250    7.49   -8.13    1.33   0.000   0.200   0.000    0.00
   0.300    7.68   -5.64    1.64   0.000   0.200   0.000    0.00
   0.350    7.37   -5.37    1.28   0.000   0.200   0.000    0.00
   0.400    7.64   -5.39    1.10   0.000   0.200   0.000    0.00
   0.450    8.28   -4.69    0.93   0.000   0.200   0.000    0.00
   0.500    8.35   -3.63    0.69   0.000   0.200   0.000    0.00
   0.550    8.21   -6.39    0.65   0.000   0.200   0.000    0.00
   0.600    7.61   -4.04    1.14   0.000   0.200   0.000    0.00
   0.650    7.94   -2.23    0.79   0.000   0.200   0.000    0.00
   0.700    7.89   -1.38    0.28   0.000   0.200   0.000    0.00
   0.750    8.09   -0.64   -0.03   0.000   0.200   0.000    0.00
   0.800    8.47   -1.19    0.19   0.000   0.200   0.000    0.00
   0.850    8.17    0.09    0.25   0.000   0.200   0.000    0.00
   0.900    8.25   -0.46    0.38   0.000   0.200   0.000    0.00
   0.950    7.73    3.96    1.08   0.000   0.200   0.000    0.00
   1.000    8.07    4.17    1.31   0.000   0.200   0.000    0.00
   1.050    8.21   -0.21    1.92   0.000   0.200   0.000    0.00
   1.100    8.47   -5.91    1.99   0.000   0.200   0.000    0.00
   1.150    8.66   -5.70    1.61   0.000   0.200   0.000    0.00
   1.200    8.13   -3.84    1.57   0.000   0.200   0.000    0.00
   1.250    7.98   -4.90    2.10   0.000   0.200   0.000    0.00
   1.300    8.17   -2.50    2.75   0.000   0.200   0.000    0.00
   1.350    8.53   -0.65    2.14   0.000   0.200   0.000    0.00
   1.400    8.50   -1.38    1.64   0.000   0.200   0.000    0.00
   1.450    8.45    6.33    0.78   0.000   0.200   0.000    0.00
   1.500    8.37    9.17    1.34   0.000   0.200   0.000    0.00
   1.550    8.22    3.04    1.61   0.000   0.200   0.000    0.00
   1.600    8.41    3.73    1.32   0.000   0.200   0.000    0.00
   1.650    8.48   11.24    1.14   0.000   0.200   0.000    0.00
   1.700    8.54    3.88    1.11   0.000   0.200   0.000    0.00
   1.750    8.57    5.93    0.63   0.000   0.200   0.000    0.00
   1.800    8.33    6.11    0.67   0.000   0.200   0.000    0.00
   1.850    9.41    7.10    1.11   0.000   0.200   0.000    0.00
   1.900    9.47    7.32    1.58   0.000   0.200   0.000    0.00
   1.950    9.26    4.83    1.88   0.000   0.200   0.000    0.00
   2.000    9.33    4.54    2.42   0.000   0.200   0.000    0.00
   2.050    9.66    3.01    2.87   0.000   0.200   0.000    0.00
   2.100    9.11   -2.03    2.93   0.000   0.200   0.000    0.00
   2.150    8.88   -1.56    3.05   0.000   0.200   0.000    0.00
   2.200    8.88   -4.23    2.20   0.000   0.200   0.000    0.00
   2.250    9.48   -6.15    2.76   0.000   0.200   0.000    0.00
   2.300    8.82   -7.59    2.85   0.000   0.200   0.000    0.00
   2.350    8.86  -12.25    2.61   0.000   0.200   0.000    0.00
   2.400    9.07   -9.61    2.65   0.000   0.200   0.000    0.00
   2.450    9.49   -6.81    3.43   0.000   0.200   0.000    0.00
   2.500    8.94   -3.11    3.29   0.000   0.200   0.000    0.00
   2.550    9.15    0.47    3.53   0.000   0.200   0.000    0.00
   2.600    8.44   -0.04    3.44   0.000   0.200   0.000    0.00
   2.650    8.11   -2.28    3.34   0.000   0.200   0.000    0.00
   2.700    8.15   -9.02    2.45   0.000   0.200   0.000    0.00
   2.750    8.20   -9.20    2.89   0.000   0.200   0.000    0.00
   2.800    8.08   -8.73    2.72   0.000   0.200   0.000    0.00
   2.850    8.45   -4.96    2.88   0.000   0.200   0.000    0.00
   2.900    8.63   -6.42    2.59   0.000   0.200   0.000    0.00
   2.950    8.67   -5.17    2.02   0.000   0.200   0.000    0.00
   3.000    8.34   -5.01    2.95   0.000   0.200   0.000    0.00
   3.050    8.39   -6.47    2.57   0.000   0.200   0.000    0.00
   3.100    8.25   -4.64    2.74   0.000   0.200   0.000    0.00
   3.150    8.18   -6.65    2.81   0.000   0.200   0.000    0.00
   3.200    8.10   -8.82    2.65   0.000   0.200   0.000    0.00
   3.250    8.39   -8.74    2.17   0.000   0.200   0.000    0.00
   3.300    8.17   -8.64    2.32   0.000   0.200   0.000    0.00
   3.350    9.11   -7.57    3.47   0.000   0.200   0.000    0.00
   3.400    9.25  -16.91    3.67   0.000   0.200   0.000    0.00
   3.450    9.58  -16.85    3.41   0.000   0.200   0.000    0.00
   3.500    9.78  -15.60    3.50   0.000   0.200   0.000    0.00
   3.550    9.24  -14.16    3.82   0.000   0.200   0.000    0.00
   3.600    9.01   -7.19    3.32   0.000   0.200   0.000    0.00
   3.650    8.98   -9.65    3.08   0.000   0.200   0.000    0.00
   3.700    8.80  -15.15    3.20   0.000   0.200   0.000    0.00
   3.750    8.96  -15.82    2.77   0.000   0.200   0.000    0.00
   3.800    9.23  -18.41    2.65   0.000   0.200   0.000    0.00
   3.850    9.00  -17.02    2.76   0.000   0.200   0.000    0.00
   3.900    8.92  -17.37    3.48   0.000   0.200   0.000    0.00
   3.950    8.36  -13.67    3.53   0.000   0.200   0.000    0.00
   4.000    8.11  -12.82    3.66   0.000   0.200   0.000    0.00
   4.050    7.92  -12.83    3.68   0.000   0.200   0.000    0.00
   4.100    7.92  -12.17    3.47   0.000   0.200   0.000    0.00
   4.150    7.79  -11.71    3.15   0.000   0.200   0.000    0.00
   4.200    8.81   -8.32    3.19   0.000   0.200   0.000    0.00
   4.250    9.47   -7.37    3.26   0.000   0.200   0.000    0.00
   4.300    9.31  -10.01    2.73   0.000   0.200   0.000    0.00
   4.350    9.05  -10.32    2.14   0.000   0.200   0.000    0.00
   4.400    9.29   -9.28    1.92   0.000   0.200   0.000    0.00
   4.450    9.38   -3.80    2.00   0.000   0.200   0.000    0.00
   4.500    9.59   -3.37    1.81   0.000   0.200   0.000    0.00
   4.550    9.91   -5.30    1.53   0.000   0.200   0.000    0.00
   4.600    9.70   -9.93    1.24   0.000   0.200   0.000    0.00
   4.650    8.92   -9.03    1.43   0.000   0.200   0.000    0.00
   4.700    9.04  -10.40    1.53   0.000   0.200   0.000    0.00
   4.750    9.95  -15.43    1.47   0.000   0.200   0.000    0.00
   4.800    9.57  -13.74    0.99   0.000   0.200   0.000    0.00
   4.850    8.96  -15.46    1.39   0.000   0.200   0.000    0.00
   4.900    8.84  -14.96    1.42   0.000   0.200   0.000    0.00
   4.950    9.31  -17.09    1.12   0.000   0.200   0.000    0.00
   5.000    9.11  -20.51    1.35   0.000   0.200   0.000    0.00
   5.050    9.76  -22.89    1.22   0.000   0.200   0.000    0.00
   5.100    9.64  -22.78    1.15   0.000   0.200   0.000    0.00
   5.150    9.45  -19.03    0.81   0.000   0.200   0.000    0.00
   5.200    9.48  -19.86    0.46   0.000   0.200   0.000    0.00
   5.250    9.22  -20.49    0.99   0.000   0.200   0.000    0.00
   5.300    9.23  -21.33    1.47   0.000   0.200   0.000    0.00
   5.350    9.68  -25.66    1.88   0.000   0.200   0.000    0.00
   5.400    9.78  -20.54    2.05   0.000   0.200   0.000    0.00
   5.450    9.29  -22.59    2.30   0.000   0.200   0.000    0.00
   5.500    8.93  -25.79    2.41   0.000   0.200   0.000    0.00
   5.550    8.64  -27.14    1.73   0.000   0.200   0.000    0.00
   5.600    8.60  -26.67    0.44   0.000   0.200   0.000    0.00
   5.650    8.53  -22.35    0.37   0.000   0.200   0.000    0.00
   5.700    8.09  -15.64    0.24   0.000   0.200   0.000    0.00
   5.750    7.96  -13.92   -0.30   0.000   0.200   0.000    0.00
   5.800    7.60  -11.77    0.29   0.000   0.200   0.000    0.00
   5.850    7.73  -15.05    0.50   0.000   0.200   0.000    0.00
   5.900    8.39  -15.63    0.34   0.000   0.200   0.000    0.00
   5.950    8.33  -16.51    0.23   0.000   0.200   0.000    0.00
   6.000    8.88  -17.91   -0.27   0.000   0.200   0.000    0.00
   6.050    8.92  -17.92    0.19   0.000   0.200   0.000    0.00
   6.100    8.95  -14.21    0.33   0.000   0.200   0.000    0.00
   6.150    8.75  -14.26    0.82   0.000   0.200   0.000    0.00
   6.200    8.73  -13.48    1.56   0.000   0.200   0.000    0.00
   6.250    8.49  -14.64    1.70   0.000   0.200   0.000    0.00
   6.300    8.19  -16.35    1.47   0.000   0.200   0.000    0.00
   6.350    8.95  -16.51    0.71   0.000   0.200   0.000    0.00
   6.400    8.82  -15.60    0.44   0.000   0.200   0.000    0.00
   6.450    9.01  -14.63    0.81   0.000   0.200   0.000    0.00
   6.500    9.46  -15.33    0.08   0.000   0.200   0.000    0.00
   6.550    8.94  -19.22   -0.29   0.000   0.200   0.000    0.00
   6.600    8.90  -17.22   -0.45   0.000   0.200   0.000    0.00
   6.650    8.99  -16.66   -0.94   0.000   0.200   0.000    0.00
   6.700    9.22  -13.03   -1.47   0.000   0.200   0.000    0.00
   6.750    9.10  -12.23   -1.22   0.000   0.200   0.000    0.00
   6.800    9.31  -18.28    0.01   0.000   0.200   0.000    0.00
   6.850    9.15  -15.26   -0.55   0.000   0.200   0.000    0.00
   6.900    8.97  -15.19   -0.11   0.000   0.200   0.000    0.00
   6.950    8.41  -12.16   -0.39   0.000   0.200   0.000    0.00
   7.000    9.35  -11.66   -0.12   0.000   0.200   0.000    0.00
   7.050    9.54   -9.45   -0.43   0.000   0.200   0.000    0.00
   7.100    8.91  -10.87   -0.46   0.000   0.200   0.000    0.00
   7.150    9.42   -5.80   -0.02   0.000   0.200   0.000    0.00
   7.200    9.96   -6.70   -0.20   0.000   0.200   0.000    0.00
   7.250    9.96   -6.53    0.01   0.000   0.200   0.000    0.00
   7.300   10.11   -4.73   -0.27   0.000   0.200   0.000    0.00
   7.350    9.93   -5.08   -0.17   0.000   0.200   0.000    0.00
   7.400   10.50   -7.42   -0.30   0.000   0.200   0.000    0.00
   7.450   10.08   -9.33   -0.85   0.000   0.200   0.000    0.00
   7.500   10.74  -11.43   -0.60   0.000   0.200   0.000    0.00
   7.550   10.82   -9.39   -0.51   0.000   0.200   0.000    0.00
   7.600   10.86  -10.09   -0.67   0.000   0.200   0.000    0.00
   7.650   11.48   -8.88   -0.12   0.000   0.200   0.000    0.00
   7.700   11.39   -5.92   -0.37   0.000   0.200   0.000    0.00
   7.750   11.45   -5.41   -0.01   0.000   0.200   0.000    0.00
   7.800   11.34   -7.52   -0.38   0.000   0.200   0.000    0.00
   7.850   11.25   -7.66   -1.06   0.000   0.200   0.000    0.00
   7.900   11.72   -7.32   -0.58   0.000   0.200   0.000    0.00
   7.950   11.61   -6.14   -0.75   0.000   0.200   0.000    0.00
   8.000   10.91   -3.59   -0.98   0.000   0.200   0.000    0.00
   8.050   11.27   -3.21   -1.09   0.000   0.200   0.000    0.00
   8.100   11.27   -3.65   -1.49   0.000   0.200   0.000    0.00
   8.150   10.92   -5.49   -0.98   0.000   0.200   0.000    0.00
   8.200   10.66   -3.77   -1.14   0.000   0.200   0.000    0.00
   8.250   10.68   -5.16   -1.01   0.000   0.200   0.000    0.00
   8.300   10.72   -2.83   -1.31   0.000   0.200   0.000    0.00
   8.350   11.04   -3.73   -1.52   0.000   0.200   0.000    0.00
   8.400   11.02   -0.67   -1.19   0.000   0.200   0.000    0.00
   8.450   10.69   -1.46   -0.92   0.000   0.200   0.000    0.00
   8.500   10.49   -0.25   -0.86   0.000   0.200   0.000    0.00
   8.550   10.80    3.82   -0.21   0.000   0.200   0.000    0.00
   8.600   10.71    4.26   -0.67   0.000   0.200   0.000    0.00
   8.650   10.55    5.03   -0.84   0.000   0.200   0.000    0.00
   8.700   10.69    6.25    0.08   0.000   0.200   0.000    0.00
   8.750   10.75    7.07   -0.20   0.000   0.200   0.000    0.00
   8.800   11.17    5.69   -0.09   0.000   0.200   0.000    0.00
   8.850   11.03    5.69   -0.21   0.000   0.200   0.000    0.00
   8.900   10.84    2.23   -0.73   0.000   0.200   0.000    0.00
   8.950   10.84   -0.41   -0.17   0.000   0.200   0.000    0.00
   9.000   11.06   -1.66   -0.03   0.000   0.200   0.000    0.00
   9.050   10.69   -2.83   -0.27   0.000   0.200   0.000    0.00
   9.100   11.43   -2.03   -1.11   0.000   0.200   0.000    0.00
   9.150   11.60   -1.90   -0.55   0.000   0.200   0.000    0.00
   9.200   11.25    0.38    0.59   0.000   0.200   0.000    0.00
   9.250   10.64    1.11    0.09   0.000   0.200   0.000    0.00
   9.300   11.70    1.13    0.14   0.000   0.200   0.000    0.00
   9.350   11.77    4.60   -0.43   0.000   0.200   0.000    0.00
   9.400   11.78    6.28   -0.85   0.000   0.200   0.000    0.00
   9.450   11.62    8.46   -1.08   0.000   0.200   0.000    0.00
   9.500   11.58   10.62   -1.13   0.000   0.200   0.000    0.00
   9.550   11.26   13.55   -0.19   0.000   0.200   0.000    0.00
   9.600   11.25   11.33   -0.30   0.000   0.200   0.000    0.00
   9.650   11.32   17.97   -0.66   0.000   0.200   0.000    0.00
   9.700   11.82   19.10   -0.56   0.000   0.200   0.000    0.00
   9.750   11.59   16.27   -0.48   0.000   0.200   0.000    0.00
   9.800   11.13   16.61   -0.13   0.000   0.200   0.000    0.00
   9.850   11.08   19.06   -0.64   0.000   0.200   0.000    0.00
   9.900   11.17   18.18   -0.81   0.000   0.200   0.000    0.00
   9.950   11.43   13.88   -0.47   0.000   0.200   0.000    0.00
  10.000   11.22   16.22   -0.40   0.000   0.200   0.000    0.00
  10.050   11.28   15.22   -0.39   0.000   0.200   0.000    0.00
  10.100   11.75   11.08    0.36   0.000   0.200   0.000    0.00
  10.150   12.25   11.67   -0.11   0.000   0.200   0.000    0.00
  10.200   11.79    7.52   -0.46   0.000   0.200   0.000    0.00
  10.250   12.33    8.99   -0.43   0.000   0.200   0.000    0.00
  10.300   12.11    6.22   -0.59   0.000   0.200   0.000    0.00
  10.350   11.60    3.84   -0.50   0.000   0.200   0.000    0.00
  10.400   11.14    7.74   -0.24   0.000   0.200   0.000    0.00
  10.450   11.26    6.82    0.37   0.000   0.200   0.000    0.00
  10.500   11.60    7.53    0.54   0.000   0.200   0.000    0.00
  10.550   11.82    9.41    1.11   0.000   0.200   0.000    0.00
  10.600   12.03   10.43    0.86   0.000   0.200   0.000    0.00
  10.650   11.97    9.73    1.37   0.000   0.200   0.000    0.00
  10.700   11.59    7.79    0.43   0.000   0.200   0.000    0.00
  10.750   11.56    8.69    1.08   0.000   0.200   0.000    0.00
  10.800   10.92    7.76    0.07   0.000   0.200   0.000    0.00
  10.850   11.02    9.10   -0.25   0.000   0.200   0.000    0.00
  10.900   11.40   12.30    0.13   0.000   0.200   0.000    0.00
  10.950   11.07    9.20    0.46   0.000   0.200   0.000    0.00
  11.000   10.93   11.69    1.04   0.000   0.200   0.000    0.00
  11.050   11.41   12.04    1.01   0.000   0.200   0.000    0.00
  11.100   12.01   11.57    0.70   0.000   0.200   0.000    0.00
  11.150   12.14   14.55    1.22   0.000   0.200   0.000    0.00
  11.200   11.67   15.82    0.85   0.000   0.200   0.000    0.00
  11.250   11.52   18.31    0.45   0.000   0.200   0.000    0.00
  11.300   11.73   20.42    0.65   0.000   0.200   0.000    0.00
  11.350   11.87   20.69    0.13   0.000   0.200   0.000    0.00
  11.400   12.21   16.27   -0.42   0.000   0.200   0.000    0.00
  11.450   11.59   15.81   -0.02   0.000   0.200   0.000    0.00
  11.500   11.24   19.38    0.46   0.000   0.200   0.000    0.00
  11.550   11.19   18.41    0.39   0.000   0.200   0.000    0.00
  11.600   11.47   13.68   -0.02   0.000   0.200   0.000    0.00
  11.650   11.44   16.83    0.46   0.000   0.200   0.000    0.00
  11.700   10.56   17.75    0.38   0.000   0.200   0.000    0.00
  11.750   11.14   15.00    0.73   0.000   0.200   0.000    0.00
  11.800   11.02   11.00    0.58   0.000   0.200   0.000    0.00
  11.850   11.45    8.92    0.34   0.000   0.200   0.000    0.00
  11.900   11.56    9.36    0.29   0.000   0.200   0.000    0.00
  11.950   11.58   12.68    1.05   0.000   0.200   0.000    0.00
  12.000   11.22   13.94    0.36   0.000   0.200   0.000    0.00
  12.050   10.83   15.21    0.87   0.000   0.200   0.000    0.00
  12.100   11.09   15.27    0.49   0.000   0.200   0.000    0.00
  12.150   11.15   14.21    0.30   0.000   0.200   0.000    0.00
  12.200   11.29   13.20    0.36   0.000   0.200   0.000    0.00
  12.250   10.87    7.48    0.79   0.000   0.200   0.000    0.00
  12.300   10.73   10.95    0.27   0.000   0.200   0.000    0.00
  12.350   10.17   10.78    0.42   0.000   0.200   0.000    0.00
  12.400   10.25    9.48    0.54   0.000   0.200   0.000    0.00
  12.450   10.90    6.72    0.00   0.000   0.200   0.000    0.00
  12.500   10.83    5.36    0.04   0.000   0.200   0.000    0.00
  12.550   11.03    2.33    0.66   0.000   0.200   0.000    0.00
  12.600   10.66   -0.52    1.06   0.000   0.200   0.000    0.00
  12.650   10.57   -1.60    0.95   0.000   0.200   0.000    0.00
  12.700   10.76   -2.13    1.68   0.000   0.200   0.000    0.00
  12.750   10.26    0.58    1.33   0.000   0.200   0.000    0.00
  12.800   10.77   -6.49    0.75   0.000   0.200   0.000    0.00
  12.850   10.74   -8.09    1.59   0.000   0.200   0.000    0.00
  12.900   10.97  -10.33    1.51   0.000   0.200   0.000    0.00
  12.950   11.43  -11.93    1.00   0.000   0.200   0.000    0.00
  13.000   11.57  -13.55    0.93   0.000   0.200   0.000    0.00
  13.050   11.32   -8.06    0.52   0.000   0.200   0.000    0.00
  13.100   10.90   -8.51    0.28   0.000   0.200   0.000    0.00
  13.150   11.02   -8.23    0.20   0.000   0.200   0.000    0.00
  13.200   11.30   -8.26   -0.71   0.000   0.200   0.000    0.00
  13.250   11.27   -8.08   -0.10   0.000   0.200   0.000    0.00
  13.300   10.98   -8.17   -0.21   0.000   0.200   0.000    0.00
  13.350   11.81   -4.81   -0.10   0.000   0.200   0.000    0.00
  13.400   11.48   -4.83   -0.26   0.000   0.200   0.000    0.00
  13.450   11.56   -6.18   -0.38   0.000   0.200   0.000    0.00
  13.500   11.19   -3.98   -0.62   0.000   0.200   0.000    0.00
  13.550   10.52   -3.56   -0.20   0.000   0.200   0.000    0.00
  13.600   10.85   -2.84    0.22   0.000   0.200   0.000    0.00
  13.650   10.78   -6.44    0.92   0.000   0.200   0.000    0.00
  13.700   11.40   -2.98    0.72   0.000   0.200   0.000    0.00
  13.750   10.91   -0.33    0.40   0.000   0.200   0.000    0.00
  13.800   10.76    0.94    0.51   0.000   0.200   0.000    0.00
  13.850   10.67   -0.19    0.14   0.000   0.200   0.000    0.00
  13.900   10.13    1.92    0.12   0.000   0.200   0.000    0.00
  13.950   10.08    1.82    0.38   0.000   0.200   0.000    0.00
  14.000   10.05   -0.21    0.60   0.000   0.200   0.000    0.00
  14.050    9.44    2.30    0.96   0.000   0.200   0.000    0.00
  14.100    9.97   -0.62    0.03   0.000   0.200   0.000    0.00
  14.150   10.02   -7.27   -0.33   0.000   0.200   0.000    0.00
  14.200    9.67   -9.75   -0.19   0.000   0.200   0.000    0.00
  14.250    9.32   -5.62   -0.13   0.000   0.200   0.000    0.00
  14.300    9.70   -4.59   -0.57   0.000   0.200   0.000    0.00
  14.350    9.63    1.45   -0.06   0.000   0.200   0.000    0.00
  14.400    9.66    2.69    0.01   0.000   0.200   0.000    0.00
  14.450    9.36    5.25    0.61   0.000   0.200   0.000    0.00
  14.500    9.53    6.52    0.12   0.000   0.200   0.000    0.00
  14.550    9.62    4.08   -0.35   0.000   0.200   0.000    0.00
  14.600    8.80    5.56   -0.45   0.000   0.200   0.000    0.00
  14.650    8.22    5.46    0.17   0.000   0.200   0.000    0.00
  14.700    8.90    9.86    0.24   0.000   0.200   0.000    0.00
  14.750    9.06    8.97    0.09   0.000   0.200   0.000    0.00
  14.800    9.01   10.81   -0.40   0.000   0.200   0.000    0.00
  14.850    9.00   13.08   -0.15   0.000   0.200   0.000    0.00
  14.900    8.05   15.84    0.30   0.000   0.200   0.000    0.00
  14.950    7.77   15.36    0.37   0.000   0.200   0.000    0.00
  15.000    7.18    9.66   -0.17   0.000   0.200   0.000    0.00
  15.050    7.48   12.11   -0.19   0.000   0.200   0.000    0.00
  15.100    7.76   12.68   -0.18   0.000   0.200   0.000    0.00
  15.150    8.25    7.95   -0.46   0.000   0.200   0.000    0.00
  15.200    8.28   13.19   -0.42   0.000   0.200   0.000    0.00
  15.250    7.98   13.50   -0.46   0.000   0.200   0.000    0.00
  15.300    8.26   13.30   -0.37   0.000   0.200   0.000    0.00
  15.350    7.68   15.50   -0.41   0.000   0.200   0.000    0.00
  15.400    8.17   15.35   -0.24   0.000   0.200   0.000    0.00
  15.450    8.03   14.71    0.16   0.000   0.200   0.000    0.00
  15.500    7.92   17.41    0.29   0.000   0.200   0.000    0.00
  15.550    7.44   10.12    0.17   0.000   0.200   0.000    0.00
  15.600    7.34    9.81    0.09   0.000   0.200   0.000    0.00
  15.650    7.11    7.80   -0.52   0.000   0.200   0.000    0.00
  15.700    7.30   12.48    0.32   0.000   0.200   0.000    0.00
  15.750    7.80   12.16    0.25   0.000   0.200   0.000    0.00
  15.800    7.53    9.77    0.85   0.000   0.200   0.000    0.00
  15.850    7.35   14.02    1.13   0.000   0.200   0.000    0.00
  15.900    7.35   12.44    0.31   0.000   0.200   0.000    0.00
  15.950    7.42   13.42   -0.21   0.000   0.200   0.000    0.00
  16.000    7.50   14.39    0.05   0.000   0.200   0.000    0.00
  16.050    7.64   10.13   -0.21   0.000   0.200   0.000    0.00
  16.100    7.34   10.54   -0.79   0.000   0.200   0.000    0.00
  16.150    7.43    7.79   -1.26   0.000   0.200   0.000    0.00
  16.200    7.43    5.94   -1.52   0.000   0.200   0.000    0.00
  16.250    7.74    6.00   -1.65   0.000   0.200   0.000    0.00
  16.300    8.61   -0.08   -1.45   0.000   0.200   0.000    0.00
  16.350    8.08   -2.89   -1.46   0.000   0.200   0.000    0.00
  16.400    8.00   -3.97   -1.11   0.000   0.200   0.000    0.00
  16.450    8.29   -2.02   -1.09   0.000   0.200   0.000    0.00
  16.500    8.25   -0.53   -0.42   0.000   0.200   0.000    0.00
  16.550    8.09    1.66   -0.13   0.000   0.200   0.000    0.00
  16.600    8.09    0.11   -0.69   0.000   0.200   0.000    0.00
  16.650    7.80   -0.66   -0.96   0.000   0.200   0.000    0.00
  16.700    7.66    4.13   -0.10   0.000   0.200   0.000    0.00
  16.750    7.77   -2.12    0.17   0.000   0.200   0.000    0.00
  16.800    7.79   -2.08    0.30   0.000   0.200   0.000    0.00
  16.850    8.62   -0.28   -0.08   0.000   0.200   0.000    0.00
  16.900    7.92    2.26   -0.29   0.000   0.200   0.000    0.00
  16.950    8.43   -0.77    0.18   0.000   0.200   0.000    0.00
  17.000    8.53    3.88    0.11   0.000   0.200   0.000    0.00
  17.050    8.44    4.64    0.40   0.000   0.200   0.000    0.00
  17.100    8.53    6.77    0.15   0.000   0.200   0.000    0.00
  17.150    8.42    2.52    0.02   0.000   0.200   0.000    0.00
  17.200    8.31   -3.87    0.32   0.000   0.200   0.000    0.00
  17.250    8.71   -5.54    0.10   0.000   0.200   0.000    0.00
  17.300    8.71   -4.63   -0.55   0.000   0.200   0.000    0.00
  17.350    8.63   -1.59   -0.95   0.000   0.200   0.000    0.00
  17.400    8.86    3.69   -0.10   0.000   0.200   0.000    0.00
  17.450    8.47    5.76    0.91   0.000   0.200   0.000    0.00
  17.500    8.50    3.52    1.67   0.000   0.200   0.000    0.00
  17.550    8.32    3.06    2.41   0.000   0.200   0.000    0.00
  17.600    8.97    2.27    2.14   0.000   0.200   0.000    0.00
  17.650    8.73    4.98    2.28   0.000   0.200   0.000    0.00
  17.700    8.55    2.20    1.73   0.000   0.200   0.000    0.00
  17.750    8.60    1.82    2.01   0.000   0.200   0.000    0.00
  17.800    8.20    8.13    2.54   0.000   0.200   0.000    0.00
  17.850    8.14    8.67    2.11   0.000   0.200   0.000    0.00
  17.900    7.59    8.25    1.96   0.000   0.200   0.000    0.00
  17.950    7.19    4.05    2.20   0.000   0.200   0.000    0.00
  18.000    6.99    6.21    2.06   0.000   0.200   0.000    0.00
  18.050    7.08    8.31    2.38   0.000   0.200   0.000    0.00
  18.100    7.27    6.51    2.07   0.000   0.200   0.000    0.00
  18.150    7.05   10.85    2.53   0.000   0.200   0.000    0.00
  18.200    7.13    6.70    2.17   0.000   0.200   0.000    0.00
  18.250    6.91    8.53    2.59   0.000   0.200   0.000    0.00
  18.300    6.93    8.73    2.61   0.000   0.200   0.000    0.00
  18.350    6.84    7.64    2.97   0.000   0.200   0.000    0.00
  18.400    7.29   10.15    3.24   0.000   0.200   0.000    0.00
  18.450    6.93   12.17    3.49   0.000   0.200   0.000    0.00
  18.500    7.06   18.48    3.75   0.000   0.200   0.000    0.00
  18.550    8.14   18.23    3.62   0.000   0.200   0.000    0.00
  18.600    8.25   20.90    2.43   0.000   0.200   0.000    0.00
  18.650    8.03   21.84    2.39   0.000   0.200   0.000    0.00
  18.700    7.88   18.73    1.89   0.000   0.200   0.000    0.00
  18.750    8.09   19.76    2.30   0.000   0.200   0.000    0.00
  18.800    8.26   20.07    2.28   0.000   0.200   0.000    0.00
  18.850    7.53   23.00    2.91   0.000   0.200   0.000    0.00
  18.900    6.99   20.48    3.27   0.000   0.200   0.000    0.00
  18.950    7.40   23.57    3.41   0.000   0.200   0.000    0.00
  19.000    6.95   21.70    4.25   0.000   0.200   0.000    0.00
  19.050    7.21   25.34    3.92   0.000   0.200   0.000    0.00
  19.100    7.61   24.68    4.05   0.000   0.200   0.000    0.00
  19.150    7.69   23.96    3.65   0.000   0.200   0.000    0.00
  19.200    8.23   27.40    3.14   0.000   0.200   0.000    0.00
  19.250    7.58   24.46    2.94   0.000   0.200   0.000    0.00
  19.300    7.11   22.66    3.37   0.000   0.200   0.000    0.00
  19.350    7.17   25.16    3.24   0.000   0.200   0.000    0.00
  19.400    7.25   25.55    2.75   0.000   0.200   0.000    0.00
  19.450    7.51   20.47    2.26   0.000   0.200   0.000    0.00
  19.500    7.63   19.98    2.25   0.000   0.200   0.000    0.00
  19.550    7.43   19.14    2.39   0.000   0.200   0.000    0.00
  19.600    7.37   19.91    2.86   0.000   0.200   0.000    0.00
  19.650    7.70   18.18    2.83   0.000   0.200   0.000    0.00
  19.700    7.54   13.40    3.19   0.000   0.200   0.000    0.00
  19.750    7.42   13.33    3.03   0.000   0.200   0.000    0.00
  19.800    7.75   11.21    2.33   0.000   0.200   0.000    0.00
  19.850    7.88   13.00    2.40   0.000   0.200   0.000    0.00
  19.900    8.16   10.13    1.95   0.000   0.200   0.000    0.00
  19.950    8.38   10.82    1.91   0.000   0.200   0.000    0.00
  20.000    7.73    8.11    1.72   0.000   0.200   0.000    0.00
  20.050    7.84    5.14    1.35   0.000   0.200   0.000    0.00
  20.100    7.85    5.69    1.84   0.000   0.200   0.000    0.00
  20.150    8.10    2.88    2.01   0.000   0.200   0.000    0.00
  20.200    8.09    1.99    1.73   0.000   0.200   0.000    0.00
  20.250    7.99    2.68    1.77   0.000   0.200   0.000    0.00
  20.300    8.41    2.86    2.57   0.000   0.200   0.000    0.00
  20.350    8.74    2.66    2.55   0.000   0.200   0.000    0.00
  20.400    8.35    1.25    1.62   0.000   0.200   0.000    0.00
  20.450    8.54    5.25    1.24   0.000   0.200   0.000    0.00
  20.500    9.66    0.77    1.43   0.000   0.200   0.000    0.00
  20.550    9.56   -0.80    1.29   0.000   0.200   0.000    0.00
  20.600    8.77   -1.03    1.91   0.000   0.200   0.000    0.00
  20.650    8.98    0.88    2.59   0.000   0.200   0.000    0.00
  20.700    9.95    2.59    3.13   0.000   0.200   0.000    0.00
  20.750   10.01    1.67    2.86   0.000   0.200   0.000    0.00
  20.800    9.62    3.25    3.77   0.000   0.200   0.000    0.00
  20.850    9.17    0.58    3.74   0.000   0.200   0.000    0.00
  20.900    8.88   -1.68    3.11   0.000   0.200   0.000    0.00
  20.950    8.62   -1.15    3.41   0.000   0.200   0.000    0.00
  21.000    8.28   -4.48    3.86   0.000   0.200   0.000    0.00
  21.050    7.73   -5.92    3.43   0.000   0.200   0.000    0.00
  21.100    7.61   -3.50    2.86   0.000   0.200   0.000    0.00
  21.150    8.42   -2.55    3.10   0.000   0.200   0.000    0.00
  21.200    9.31   -4.67    3.73   0.000   0.200   0.000    0.00
  21.250    9.52   -4.94    4.09   0.000   0.200   0.000    0.00
  21.300    9.83   -3.71    4.30   0.000   0.200   0.000    0.00
  21.350    9.39   -1.95    4.19   0.000   0.200   0.000    0.00
  21.400    9.13   -2.94    4.74   0.000   0.200   0.000    0.00
  21.450    9.52   -2.45    4.58   0.000   0.200   0.000    0.00
  21.500   10.29   -1.41    4.36   0.000   0.200   0.000    0.00
  21.550    9.91    1.61    4.02   0.000   0.200   0.000    0.00
  21.600   10.03    1.23    4.21   0.000   0.200   0.000    0.00
  21.650    9.68    2.82    3.78   0.000   0.200   0.000    0.00
  21.700    9.23    5.08    3.26   0.000   0.200   0.000    0.00
  21.750    9.99    3.99    3.50   0.000   0.200   0.000    0.00
  21.800   10.16    5.03    3.77   0.000   0.200   0.000    0.00
  21.850   10.17    3.90    4.55   0.000   0.200   0.000    0.00
  21.900   10.29    2.12    3.71   0.000   0.200   0.000    0.00
  21.950   10.32    1.80    3.54   0.000   0.200   0.000    0.00
  22.000   10.16    1.40    3.16   0.000   0.200   0.000    0.00
  22.050   10.27    1.58    3.10   0.000   0.200   0.000    0.00
  22.100   10.04    3.27    3.38   0.000   0.200   0.000    0.00
  22.150    9.69    9.49    2.86   0.000   0.200   0.000    0.00
  22.200    9.02    8.99    2.44   0.000   0.200   0.000    0.00
  22.250    8.70   11.50    2.30   0.000   0.200   0.000    0.00
  22.300    8.36   17.94    2.75   0.000   0.200   0.000    0.00
  22.350    8.13   13.86    2.53   0.000   0.200   0.000    0.00