! This hub-height wind-speed file was generated by TurbSim (v1.06.00, 21-Sep-2012) on 03-Feb-2018 at 23:30:15.
!
! The requested statistics for this data were:
!    Mean Total Wind Speed =   15.000 m/s
!    Turbulence Intensity  =   15.727%
!
!   Time  HorSpd  WndDir  VerSpd  HorShr  VerShr  LnVShr  GstSpd
!  (sec)   (m/s)   (deg)   (m/s)     (-)     (-)     (-)   (m/s)
   0.000   14.50   -5.67    0.58   0.000   0.200   0.000    0.00
   0.050   15.03   -4.81    0.72   0.000   0.200   0.000    0.00
   0.100   14.96   -5.44    0.60   0.000   0.200   0.000    0.00
   0.150   14.54   -7.00    1.07   0.000   0.200   0.000    0.00
   0.200   14.33   -5.87    1.54   0.000   0.200   0.000    0.00
   0.250   14.69   -4.92    2.40   0.000   0.200   0.000    0.00
   0.300   14.24   -5.73    2.14   0.000   0.200   0.000    0.00
   0.350   14.53   -1.11    0.91   0.000   0.200   0.000    0.00
   0.400   14.43   -0.22    0.53   0.000   0.200   0.000    0.00
   0.450   14.33    0.05    0.94   0.000   0.200   0.000    0.00
   0.500   14.14   -2.06    1.17   0.000   0.200   0.000    0.00
   0.550   13.79   -0.36    1.22   0.000   0.200   0.000    0.00
   0.600   13.67    0.43    1.30   0.000   0.200   0.000    0.00
   0.650   13.79   -0.45    1.38   0.000   0.200   0.000    0.00
   0.700   14.31    2.07    1.24   0.000   0.200   0.000    0.00
   0.750   14.11   -2.64    1.46   0.000   0.200   0.000    0.00
   0.800   14.32    0.97    0.54   0.000   0.200   0.000    0.00
   0.850   14.55    2.35    0.33   0.000   0.200   0.000    0.00
   0.900   14.90    3.01   -0.21   0.000   0.200   0.000    0.00
   0.950   14.12    0.84   -0.43   0.000   0.200   0.000    0.00
   1.000   13.97    3.31   -0.59   0.000   0.200   0.000    0.00
   1.050   14.06    4.43   -0.40   0.000   0.200   0.000    0.00
   1.100   14.94    3.78   -0.33   0.000   0.200   0.000    0.00
   1.150   15.33    3.79   -0.30   0.000   0.200   0.000    0.00
   1.200   15.82    4.94   -0.45   0.000   0.200   0.000    0.00
   1.250   15.57    4.74   -0.02   0.000   0.200   0.000    0.00
   1.300   15.60    2.60   -0.17   0.000   0.200   0.000    0.00
   1.350   15.55    0.84   -1.29   0.000   0.200   0.000    0.00
   1.400   15.76    0.39   -1.08   0.000   0.200   0.000    0.00
   1.450   15.57    0.93   -0.21   0.000   0.200   0.000    0.00
   1.500   15.75    2.09   -0.05   0.000   0.200   0.000    0.00
   1.550   15.70    2.33   -0.24   0.000   0.200   0.000    0.00
   1.600   15.60    4.43   -0.26   0.000   0.200   0.000    0.00
   1.650   15.72    5.21   -0.64   0.000   0.200   0.000    0.00
   1.700   16.25    5.21    0.67   0.000   0.200   0.000    0.00
   1.750   16.77    6.54    0.29   0.000   0.200   0.000    0.00
   1.800   16.76    6.81    0.29   0.000   0.200   0.000    0.00
   1.850   16.94    6.24   -0.34   0.000   0.200   0.000    0.00
   1.900   18.04    5.30   -0.22   0.000   0.200   0.000    0.00
   1.950   17.63    5.20   -0.86   0.000   0.200   0.000    0.00
   2.000   17.49    4.09   -0.09   0.000   0.200   0.000    0.00
   2.050   17.72    5.60   -0.38   0.000   0.200   0.000    0.00
   2.100   17.74    4.78   -0.08   0.000   0.200   0.000    0.00
   2.150   17.36    2.04   -0.57   0.000   0.200   0.000    0.00
   2.200   16.98    0.77   -0.58   0.000   0.200   0.000    0.00
   2.250   16.76    1.95   -0.41   0.000   0.200   0.000    0.00
   2.300   16.70    1.05   -0.40   0.000   0.200   0.000    0.00
   2.350   16.50    2.25   -0.35   0.000   0.200   0.000    0.00
   2.400   16.46    0.77    0.30   0.000   0.200   0.000    0.00
   2.450   16.11    0.96   -0.25   0.000   0.200   0.000    0.00
   2.500   16.31   -1.20   -0.58   0.000   0.200   0.000    0.00
   2.550   15.81   -1.17   -0.40   0.000   0.200   0.000    0.00
   2.600   16.08   -1.34   -0.15   0.000   0.200   0.000    0.00
   2.650   15.96   -2.42    0.06   0.000   0.200   0.000    0.00
   2.700   16.33   -3.99    0.18   0.000   0.200   0.000    0.00
   2.750   17.08   -1.64    0.22   0.000   0.200   0.000    0.00
   2.800   17.02   -2.49   -0.06   0.000   0.200   0.000    0.00
   2.850   16.98   -2.13    0.33   0.000   0.200   0.000    0.00
   2.900   16.98   -1.83   -0.14   0.000   0.200   0.000    0.00
   2.950   17.58   -0.93   -0.19   0.000   0.200   0.000    0.00
   3.000   17.63    0.15   -0.31   0.000   0.200   0.000    0.00
   3.050   17.04    0.92   -0.08   0.000   0.200   0.000    0.00
   3.100   16.86   -0.83    0.14   0.000   0.200   0.000    0.00
   3.150   17.06   -1.83    0.13   0.000   0.200   0.000    0.00
   3.200   17.47   -1.68   -0.36   0.000   0.200   0.000    0.00
   3.250   16.91   -3.24   -0.16   0.000   0.200   0.000    0.00
   3.300   16.85   -1.43   -0.13   0.000   0.200   0.000    0.00
   3.350   16.81   -3.14   -0.23   0.000   0.200   0.000    0.00
   3.400   16.13   -4.64    0.17   0.000   0.200   0.000    0.00
   3.450   16.46   -4.48    0.31   0.000   0.200   0.000    0.00
   3.500   16.64   -5.31    0.10   0.000   0.200   0.000    0.00
   3.550   16.87   -7.22    0.38   0.000   0.200   0.000    0.00
   3.600   17.10   -3.91    0.73   0.000   0.200   0.000    0.00
   3.650   17.28   -1.62    0.47   0.000   0.200   0.000    0.00
   3.700   17.61   -5.15    1.14   0.000   0.200   0.000    0.00
   3.750   17.33   -2.24    1.71   0.000   0.200   0.000    0.00
   3.800   17.21   -1.28    1.01   0.000   0.200   0.000    0.00
   3.850   16.86    1.19    1.05   0.000   0.200   0.000    0.00
   3.900   16.79    2.75    0.11   0.000   0.200   0.000    0.00
   3.950   15.99    4.57   -0.09   0.000   0.200   0.000    0.00
   4.000   16.13    2.12   -0.11   0.000   0.200   0.000    0.00
   4.050   15.59    1.38   -0.31   0.000   0.200   0.000    0.00
   4.100   15.69    3.19   -0.74   0.000   0.200   0.000    0.00
   4.150   15.71    5.13   -1.26   0.000   0.200   0.000    0.00
   4.200   15.56    6.17   -1.70   0.000   0.200   0.000    0.00
   4.250   17.07    7.61   -0.80   0.000   0.200   0.000    0.00
   4.300   17.55    6.95   -1.28   0.000   0.200   0.000    0.00
   4.350   17.12    5.79   -1.39   0.000   0.200   0.000    0.00
   4.400   17.31    7.49   -0.82   0.000   0.200   0.000    0.00
   4.450   17.77    8.48   -0.77   0.000   0.200   0.000    0.00
   4.500   17.77    7.74   -0.75   0.000   0.200   0.000    0.00
   4.550   18.05    7.36   -0.21   0.000   0.200   0.000    0.00
   4.600   18.06    7.99    0.29   0.000   0.200   0.000    0.00
   4.650   18.29    5.30   -0.32   0.000   0.200   0.000    0.00
   4.700   18.35    5.84   -0.40   0.000   0.200   0.000    0.00
   4.750   18.40    8.67   -0.09   0.000   0.200   0.000    0.00
   4.800   18.23    8.67    0.12   0.000   0.200   0.000    0.00
   4.850   18.37    8.76    0.40   0.000   0.200   0.000    0.00
   4.900   18.80    9.47    0.20   0.000   0.200   0.000    0.00
   4.950   19.20    9.81    0.82   0.000   0.200   0.000    0.00
   5.000   18.34    7.63    0.95   0.000   0.200   0.000    0.00
   5.050   18.23    8.49    1.13   0.000   0.200   0.000    0.00
   5.100   18.19    9.13    0.33   0.000   0.200   0.000    0.00
   5.150   18.29    8.06    0.17   0.000   0.200   0.000    0.00
   5.200   18.11    9.70    0.15   0.000   0.200   0.000    0.00
   5.250   18.04    7.57    1.10   0.000   0.200   0.000    0.00
   5.300   17.43    4.67    0.65   0.000   0.200   0.000    0.00
   5.350   17.27    3.43   -0.33   0.000   0.200   0.000    0.00
   5.400   17.44    5.29   -0.03   0.000   0.200   0.000    0.00
   5.450   18.19    5.86    0.06   0.000   0.200   0.000    0.00
   5.500   17.28    7.16    0.10   0.000   0.200   0.000    0.00
   5.550   17.18    6.15   -0.37   0.000   0.200   0.000    0.00
   5.600   17.72    4.59   -0.19   0.000   0.200   0.000    0.00
   5.650   17.99    2.79    0.03   0.000   0.200   0.000    0.00
   5.700   17.98    5.32    0.21   0.000   0.200   0.000    0.00
   5.750   17.69    6.19    0.22   0.000   0.200   0.000    0.00
   5.800   16.68    5.55   -0.75   0.000   0.200   0.000    0.00
   5.850   16.65    5.00   -0.93   0.000   0.200   0.000    0.00
   5.900   16.94    7.83   -1.29   0.000   0.200   0.000    0.00
   5.950   17.37    6.03   -1.52   0.000   0.200   0.000    0.00
   6.000   17.70    6.97   -1.27   0.000   0.200   0.000    0.00
   6.050   17.09    9.56   -1.12   0.000   0.200   0.000    0.00
   6.100   17.04    8.95   -1.31   0.000   0.200   0.000    0.00
   6.150   16.84    6.44   -2.10   0.000   0.200   0.000    0.00
   6.200   16.66   10.12   -2.14   0.000   0.200   0.000    0.00
   6.250   15.57   10.30   -1.76   0.000   0.200   0.000    0.00
   6.300   15.56   10.99   -1.56   0.000   0.200   0.000    0.00
   6.350   16.21   11.69   -1.57   0.000   0.200   0.000    0.00
   6.400   16.52   11.40   -1.55   0.000   0.200   0.000    0.00
   6.450   17.09   12.53   -1.23   0.000   0.200   0.000    0.00
   6.500   17.26   13.04   -1.76   0.000   0.200   0.000    0.00
   6.550   17.39   13.78   -1.37   0.000   0.200   0.000    0.00
   6.600   17.62   12.85   -1.86   0.000   0.200   0.000    0.00
   6.650   18.21   11.69   -1.35   0.000   0.200   0.000    0.00
   6.700   17.79   10.44   -1.22   0.000   0.200   0.000    0.00
   6.750   17.61   10.27   -0.74   0.000   0.200   0.000    0.00
   6.800   17.75    9.45   -0.71   0.000   0.200   0.000    0.00
   6.850   17.80    6.98   -0.77   0.000   0.200   0.000    0.00
   6.900   17.04    7.10   -0.37   0.000   0.200   0.000    0.00
   6.950   17.14    5.18   -0.14   0.000   0.200   0.000    0.00
   7.000   16.86    6.73   -0.05   0.000   0.200   0.000    0.00
   7.050   16.62    8.97   -0.01   0.000   0.200   0.000    0.00
   7.100   17.33    6.39   -0.19   0.000   0.200   0.000    0.00
   7.150   18.00    9.36   -0.40   0.000   0.200   0.000    0.00
   7.200   17.58    7.90    0.05   0.000   0.200   0.000    0.00
   7.250   17.80    7.24   -0.19   0.000   0.200   0.000    0.00
   7.300   18.32    6.50   -0.04   0.000   0.200   0.000    0.00
   7.350   18.41    6.80    0.28   0.000   0.200   0.000    0.00
   7.400   17.85    7.53    1.01   0.000   0.200   0.000    0.00
   7.450   18.13    7.04    0.69   0.000   0.200   0.000    0.00
   7.500   18.56    8.29    0.25   0.000   0.200   0.000    0.00
   7.550   18.85    7.01   -0.07   0.000   0.200   0.000    0.00
   7.600   18.40    7.60    0.11   0.000   0.200   0.000    0.00
   7.650   18.73    8.05    0.21   0.000   0.200   0.000    0.00
   7.700   18.90    6.76   -0.62   0.000   0.200   0.000    0.00
   7.750   17.88    6.27   -1.10   0.000   0.200   0.000    0.00
   7.800   17.48    4.95   -1.34   0.000   0.200   0.000    0.00
   7.850   18.18    3.79   -1.61   0.000   0.200   0.000    0.00
   7.900   18.07    5.01   -1.10   0.000   0.200   0.000    0.00
   7.950   17.72    5.75   -0.92   0.000   0.200   0.000    0.00
   8.000   17.92    5.27   -0.88   0.000   0.200   0.000    0.00
   8.050   17.88    6.42   -0.67   0.000   0.200   0.000    0.00
   8.100   17.69    3.78   -0.53   0.000   0.200   0.000    0.00
   8.150   17.66    2.99    0.28   0.000   0.200   0.000    0.00
   8.200   18.11    7.14    0.34   0.000   0.200   0.000    0.00
   8.250   18.12    6.92    0.69   0.000   0.200   0.000    0.00
   8.300   17.52    7.20    0.61   0.000   0.200   0.000    0.00
   8.350   16.99    5.90    0.88   0.000   0.200   0.000    0.00
   8.400   16.91    7.75    0.91   0.000   0.200   0.000    0.00
   8.450   17.55    7.64    0.10   0.000   0.200   0.000    0.00
   8.500   18.16    4.82   -0.14   0.000   0.200   0.000    0.00
   8.550   18.81    2.34    0.22   0.000   0.200   0.000    0.00
   8.600   18.67    3.80    0.35   0.000   0.200   0.000    0.00
   8.650   18.83    6.31   -0.13   0.000   0.200   0.000    0.00
   8.700   18.85    6.13    0.78   0.000   0.200   0.000    0.00
   8.750   18.44    4.07    0.40   0.000   0.200   0.000    0.00
   8.800   18.19    2.85    0.59   0.000   0.200   0.000    0.00
   8.850   18.25    3.97   -0.26   0.000   0.200   0.000    0.00
   8.900   18.14    5.79    0.19   0.000   0.200   0.000    0.00
   8.950   18.03    6.73    0.42   0.000   0.200   0.000    0.00
   9.000   18.56    7.19    1.06   0.000   0.200   0.000    0.00
   9.050   18.86    7.71    0.00   0.000   0.200   0.000    0.00
   9.100   18.97    8.72    0.39   0.000   0.200   0.000    0.00
   9.150   18.76    9.67    0.73   0.000   0.200   0.000    0.00
   9.200   18.44    7.11    0.45   0.000   0.200   0.000    0.00
   9.250   18.43    5.95    0.76   0.000   0.200   0.000    0.00
   9.300   18.87    6.36    0.46   0.000   0.200   0.000    0.00
   9.350   18.58    6.84    0.48   0.000   0.200   0.000    0.00
   9.400   18.37    6.66    0.39   0.000   0.200   0.000    0.00
   9.450   17.89    7.38    0.44   0.000   0.200   0.000    0.00
   9.500   18.55    6.94    0.88   0.000   0.200   0.000    0.00
   9.550   18.61    6.94    0.99   0.000   0.200   0.000    0.00
   9.600   18.25    6.37    0.43   0.000   0.200   0.000    0.00
   9.650   18.41    7.30    0.48   0.000   0.200   0.000    0.00
   9.700   19.01    6.61   -0.12   0.000   0.200   0.000    0.00
   9.750   18.95    6.77   -0.29   0.000   0.200   0.000    0.00
   9.800   19.19    5.02   -0.20   0.000   0.200   0.000    0.00
   9.850   19.35    4.56   -0.45   0.000   0.200   0.000    0.00
   9.900   19.43    5.17   -0.73   0.000   0.200   0.000    0.00
   9.950   19.66    6.19    0.47   0.000   0.200   0.000    0.00
  10.000   19.14    5.90    0.48   0.000   0.200   0.000    0.00
  10.050   18.94    4.44   -0.02   0.000   0.200   0.000    0.00
  10.100   19.24    6.08   -0.91   0.000   0.200   0.000    0.00
  10.150   19.34    5.13   -0.76   0.000   0.200   0.000    0.00
  10.200   19.79    3.20   -0.56   0.000   0.200   0.000    0.00
  10.250   18.98    2.48   -0.29   0.000   0.200   0.000    0.00
  10.300   19.21    0.70   -0.54   0.000   0.200   0.000    0.00
  10.350   19.14    1.09   -1.23   0.000   0.200   0.000    0.00
  10.400   19.09    4.93   -1.14   0.000   0.200   0.000    0.00
  10.450   18.77    3.21   -0.86   0.000   0.200   0.000    0.00
  10.500   18.92    2.23   -0.43   0.000   0.200   0.000    0.00
  10.550   18.66    3.97   -0.01   0.000   0.200   0.000    0.00
  10.600   17.93    3.54   -0.28   0.000   0.200   0.000    0.00
  10.650   18.20    2.97   -0.15   0.000   0.200   0.000    0.00
  10.700   18.14    3.08    0.07   0.000   0.200   0.000    0.00
  10.750   18.40    2.31   -0.52   0.000   0.200   0.000    0.00
  10.800   18.75    2.22   -0.38   0.000   0.200   0.000    0.00
  10.850   18.63    2.00   -0.57   0.000   0.200   0.000    0.00
  10.900   18.33    3.50   -0.95   0.000   0.200   0.000    0.00
  10.950   17.60    4.20   -0.94   0.000   0.200   0.000    0.00
  11.000   17.61    4.10   -1.19   0.000   0.200   0.000    0.00
  11.050   17.17    1.92   -0.42   0.000   0.200   0.000    0.00
  11.100   17.52    3.08   -0.10   0.000   0.200   0.000    0.00
  11.150   18.23    4.64   -0.66   0.000   0.200   0.000    0.00
  11.200   18.02    3.81   -0.83   0.000   0.200   0.000    0.00
  11.250   17.33    2.30   -0.79   0.000   0.200   0.000    0.00
  11.300   17.33    4.60   -0.20   0.000   0.200   0.000    0.00
  11.350   17.56    5.22    0.19   0.000   0.200   0.000    0.00
  11.400   17.35    4.38    0.49   0.000   0.200   0.000    0.00
  11.450   17.12    2.85    0.03   0.000   0.200   0.000    0.00
  11.500   16.79    5.10    0.23   0.000   0.200   0.000    0.00
  11.550   16.77    5.16    0.78   0.000   0.200   0.000    0.00
  11.600   16.53    7.03    0.52   0.000   0.200   0.000    0.00
  11.650   16.85    8.26    0.12   0.000   0.200   0.000    0.00
  11.700   17.12    7.28   -0.21   0.000   0.200   0.000    0.00
  11.750   16.99    5.89   -0.18   0.000   0.200   0.000    0.00
  11.800   17.09    5.53    0.51   0.000   0.200   0.000    0.00
  11.850   16.99    7.22    0.61   0.000   0.200   0.000    0.00
  11.900   18.18    6.32    1.01   0.000   0.200   0.000    0.00
  11.950   18.42    5.93    0.88   0.000   0.200   0.000    0.00
  12.000   17.90    4.38   -0.06   0.000   0.200   0.000    0.00
  12.050   17.35    4.35    0.11   0.000   0.200   0.000    0.00
  12.100   17.76    3.46    0.04   0.000   0.200   0.000    0.00
  12.150   17.53    2.57    0.18   0.000   0.200   0.000    0.00
  12.200   17.52    4.36    0.46   0.000   0.200   0.000    0.00
  12.250   17.51    4.40    0.58   0.000   0.200   0.000    0.00
  12.300   18.13    5.31    0.82   0.000   0.200   0.000    0.00
  12.350   18.10    6.75    0.91   0.000   0.200   0.000    0.00
  12.400   18.05    6.03    0.50   0.000   0.200   0.000    0.00
  12.450   18.21    4.54    0.56   0.000   0.200   0.000    0.00
  12.500   18.19    2.48    0.86   0.000   0.200   0.000    0.00
  12.550   18.63    2.10    0.89   0.000   0.200   0.000    0.00
  12.600   18.54    2.12    0.34   0.000   0.200   0.000    0.00
  12.650   18.69    0.86   -0.64   0.000   0.200   0.000    0.00
  12.700   18.50    2.25   -0.39   0.000   0.200   0.000    0.00
  12.750   18.70    3.69   -0.99   0.000   0.200   0.000    0.00
  12.800   18.62    5.49   -0.92   0.000   0.200   0.000    0.00
  12.850   19.15    7.38   -1.08   0.000   0.200   0.000    0.00
  12.900   19.59    6.88   -0.88   0.000   0.200   0.000    0.00
  12.950   19.19    5.54   -0.74   0.000   0.200   0.000    0.00
  13.000   19.25    2.33   -0.94   0.000   0.200   0.000    0.00
  13.050   19.49    4.36   -0.77   0.000   0.200   0.000    0.00
  13.100   19.13    3.11   -1.00   0.000   0.200   0.000    0.00
  13.150   18.67    3.64   -0.72   0.000   0.200   0.000    0.00
  13.200   18.80    4.20   -0.96   0.000   0.200   0.000    0.00
  13.250   18.49    4.09   -0.49   0.000   0.200   0.000    0.00
  13.300   18.35    4.02   -0.63   0.000   0.200   0.000    0.00
  13.350   19.16    3.91    0.01   0.000   0.200   0.000    0.00
  13.400   18.94    4.03    0.14   0.000   0.200   0.000    0.00
  13.450   19.18    2.83   -0.48   0.000   0.200   0.000    0.00
  13.500   19.03    4.03   -0.29   0.000   0.200   0.000    0.00
  13.550   18.78    4.84   -0.18   0.000   0.200   0.000    0.00
  13.600   17.89    5.24    0.23   0.000   0.200   0.000    0.00
  13.650   18.37    5.61    0.19   0.000   0.200   0.000    0.00
  13.700   18.63    9.80    0.38   0.000   0.200   0.000    0.00
  13.750   18.72    8.44   -0.47   0.000   0.200   0.000    0.00
  13.800   18.96   10.37   -0.61   0.000   0.200   0.000    0.00
  13.850   18.88   10.70   -0.98   0.000   0.200   0.000    0.00
  13.900   19.28   12.40   -0.60   0.000   0.200   0.000    0.00
  13.950   19.30   12.41   -0.05   0.000   0.200   0.000    0.00
  14.000   18.83   12.52    0.26   0.000   0.200   0.000    0.00
  14.050   18.51   11.73   -0.11   0.000   0.200   0.000    0.00
  14.100   18.50   11.67   -0.26   0.000   0.200   0.000    0.00
  14.150   18.34   14.19   -0.07   0.000   0.200   0.000    0.00
  14.200   18.13   15.93    0.34   0.000   0.200   0.000    0.00
  14.250   18.35   15.50   -0.47   0.000   0.200   0.000    0.00
  14.300   18.77   15.81   -0.63   0.000   0.200   0.000    0.00
  14.350   18.28   17.31   -0.90   0.000   0.200   0.000    0.00
  14.400   17.50   14.85   -0.28   0.000   0.200   0.000    0.00
  14.450   17.41   16.56   -0.30   0.000   0.200   0.000    0.00
  14.500   16.85   16.29    0.03   0.000   0.200   0.000    0.00
  14.550   17.15   16.62   -0.30   0.000   0.200   0.000    0.00
  14.600   17.20   14.79   -1.27   0.000   0.200   0.000    0.00
  14.650   17.96   15.28   -1.22   0.000   0.200   0.000    0.00
  14.700   18.02   16.90   -0.70   0.000   0.200   0.000    0.00
  14.750   18.38   12.80   -1.52   0.000   0.200   0.000    0.00
  14.800   18.04   12.75   -1.50   0.000   0.200   0.000    0.00
  14.850   18.82   11.20   -1.58   0.000   0.200   0.000    0.00
  14.900   18.22   13.36   -1.77   0.000   0.200   0.000    0.00
  14.950   18.61   13.78   -1.62   0.000   0.200   0.000    0.00
  15.000   18.76   13.02   -1.30   0.000   0.200   0.000    0.00
  15.050   18.47   14.74   -1.02   0.000   0.200   0.000    0.00
  15.100   18.37   18.49   -1.21   0.000   0.200   0.000    0.00
  15.150   18.23   17.92   -0.98   0.000   0.200   0.000    0.00
  15.200   18.30   18.00   -0.68   0.000   0.200   0.000    0.00
  15.250   18.04   16.75   -0.23   0.000   0.200   0.000    0.00
  15.300   17.87   15.35   -0.10   0.000   0.200   0.000    0.00
  15.350   17.97   15.10   -0.41   0.000   0.200   0.000    0.00
  15.400   17.60   15.00   -0.47   0.000   0.200   0.000    0.00
  15.450   17.54   14.40    0.09   0.000   0.200   0.000    0.00
  15.500   18.33   16.64   -0.53   0.000   0.200   0.000    0.00
  15.550   18.92   15.78   -1.09   0.000   0.200   0.000    0.00
  15.600   19.61   14.21   -1.94   0.000   0.200   0.000    0.00
  15.650   19.54   14.38   -1.85   0.000   0.200   0.000    0.00
  15.700   19.10   15.56   -2.28   0.000   0.200   0.000    0.00
  15.750   19.14   17.31   -3.00   0.000   0.200   0.000    0.00
  15.800   19.12   13.90   -2.59   0.000   0.200   0.000    0.00
  15.850   19.16   14.83   -2.08   0.000   0.200   0.000    0.00
  15.900   19.06   14.33   -1.84   0.000   0.200   0.000    0.00
  15.950   18.95   12.71   -2.30   0.000   0.200   0.000    0.00
  16.000   18.71   12.50   -2.27   0.000   0.200   0.000    0.00
  16.050   18.69   12.38   -3.28   0.000   0.200   0.000    0.00
  16.100   18.57   12.95   -3.39   0.000   0.200   0.000    0.00
  16.150   18.50   10.97   -2.61   0.000   0.200   0.000    0.00
  16.200   19.19   10.17   -2.00   0.000   0.200   0.000    0.00
  16.250   18.88   11.15   -2.29   0.000   0.200   0.000    0.00
  16.300   18.71   10.46   -2.98   0.000   0.200   0.000    0.00
  16.350   19.41   11.11   -2.48   0.000   0.200   0.000    0.00
  16.400   19.80   10.65   -1.40   0.000   0.200   0.000    0.00
  16.450   20.01   11.34   -1.23   0.000   0.200   0.000    0.00
  16.500   20.41   14.07   -1.08   0.000   0.200   0.000    0.00
  16.550   20.72   15.83   -1.08   0.000   0.200   0.000    0.00
  16.600   20.01   14.20   -1.06   0.000   0.200   0.000    0.00
  16.650   19.55   14.25   -0.93   0.000   0.200   0.000    0.00
  16.700   20.03   12.77   -0.42   0.000   0.200   0.000    0.00
  16.750   19.85   13.31   -1.16   0.000   0.200   0.000    0.00
  16.800   19.85   13.66   -0.78   0.000   0.200   0.000    0.00
  16.850   20.12   12.52   -0.94   0.000   0.200   0.000    0.00
  16.900   20.04   10.58   -0.93   0.000   0.200   0.000    0.00
  16.950   19.75   10.42   -0.92   0.000   0.200   0.000    0.00
  17.000   19.55    9.52   -0.77   0.000   0.200   0.000    0.00
  17.050   19.74    9.87   -1.61   0.000   0.200   0.000    0.00
  17.100   19.91    8.67   -1.87   0.000   0.200   0.000    0.00
  17.150   20.33    9.67   -2.30   0.000   0.200   0.000    0.00
  17.200   20.08    8.59   -1.91   0.000   0.200   0.000    0.00
  17.250   20.45   10.37   -1.19   0.000   0.200   0.000    0.00
  17.300   21.11   11.32   -1.06   0.000   0.200   0.000    0.00
  17.350   21.40   11.11   -0.71   0.000   0.200   0.000    0.00
  17.400   21.12   10.52   -1.44   0.000   0.200   0.000    0.00
  17.450   21.50   11.04   -1.17   0.000   0.200   0.000    0.00
  17.500   22.19   11.91   -0.96   0.000   0.200   0.000    0.00
  17.550   22.49   13.82   -1.43   0.000   0.200   0.000    0.00
  17.600   22.10   13.90   -1.20   0.000   0.200   0.000    0.00
  17.650   21.52   15.13   -0.99   0.000   0.200   0.000    0.00
  17.700   21.77   14.66   -0.47   0.000   0.200   0.000    0.00
  17.750   21.22   13.86   -0.30   0.000   0.200   0.000    0.00
  17.800   20.63   10.02   -0.40   0.000   0.200   0.000    0.00
  17.850   21.10    9.00   -0.49   0.000   0.200   0.000    0.00
  17.900   21.09    9.01   -0.70   0.000   0.200   0.000    0.00
  17.950   21.49    6.92   -0.24   0.000   0.200   0.000    0.00
  18.000   21.72    5.17   -0.90   0.000   0.200   0.000    0.00
  18.050   21.11    3.83   -1.02   0.000   0.200   0.000    0.00
  18.100   20.50    5.62   -0.26   0.000   0.200   0.000    0.00
  18.150   20.59    5.04   -0.73   0.000   0.200   0.000    0.00
  18.200   20.82    5.78   -1.57   0.000   0.200   0.000    0.00
  18.250   21.13    4.15   -1.65   0.000   0.200   0.000    0.00
  18.300   21.34    4.80   -1.59   0.000   0.200   0.000    0.00
  18.350   20.59    5.48   -2.02   0.000   0.200   0.000    0.00
  18.400   20.39    4.59   -1.79   0.000   0.200   0.000    0.00
  18.450   20.56    5.71   -1.74   0.000   0.200   0.000    0.00
  18.500   20.39    5.64   -1.85   0.000   0.200   0.000    0.00
  18.550   19.71    6.19   -1.70   0.000   0.200   0.000    0.00
  18.600   18.96    8.38   -1.48   0.000   0.200   0.000    0.00
  18.650   19.68    7.83   -1.70   0.000   0.200   0.000    0.00
  18.700   20.17    6.81   -1.74   0.000   0.200   0.000    0.00
  18.750   19.79    6.64   -1.29   0.000   0.200   0.000    0.00
  18.800   19.53    6.61   -1.22   0.000   0.200   0.000    0.00
  18.850   19.03    5.41   -1.28   0.000   0.200   0.000    0.00
  18.900   19.51    4.45   -0.55   0.000   0.200   0.000    0.00
  18.950   19.17    4.96   -0.95   0.000   0.200   0.000    0.00
  19.000   18.97    4.73   -1.23   0.000   0.200   0.000    0.00
  19.050   19.02    6.22   -0.84   0.000   0.200   0.000    0.00
  19.100   19.07    7.22   -0.39   0.000   0.200   0.000    0.00
  19.150   18.99    6.52   -0.18   0.000   0.200   0.000    0.00
  19.200   19.12    6.12    0.04   0.000   0.200   0.000    0.00
  19.250   19.61    4.03    0.37   0.000   0.200   0.000    0.00
  19.300   19.73    6.96    0.50   0.000   0.200   0.000    0.00
  19.350   20.50    6.01    0.50   0.000   0.200   0.000    0.00
  19.400   20.33    6.62    0.58   0.000   0.200   0.000    0.00
  19.450   19.89    7.74    0.25   0.000   0.200   0.000    0.00
  19.500   20.06    7.25    0.71   0.000   0.200   0.000    0.00
  19.550   20.77    8.45    0.61   0.000   0.200   0.000    0.00
  19.600   20.05    8.93    0.25   0.000   0.200   0.000    0.00
  19.650   19.92    8.62   -0.43   0.000   0.200   0.000    0.00
  19.700   20.15    8.84   -0.26   0.000   0.200   0.000    0.00
  19.750   20.31   10.84   -0.57   0.000   0.200   0.000    0.00
  19.800   20.61    8.43   -0.89   0.000   0.200   0.000    0.00
  19.850   21.32    8.05   -0.80   0.000   0.200   0.000    0.00
  19.900   21.46    8.80   -0.23   0.000   0.200   0.000    0.00
  19.950   20.87    5.52   -0.40   0.000   0.200   0.000    0.00
  20.000   21.00    5.60    0.19   0.000   0.200   0.000    0.00
  20.050   20.81    5.05    0.20   0.000   0.200   0.000    0.00
  20.100   20.32    3.74    0.22   0.000   0.200   0.000    0.00
  20.150   20.74    4.15    0.30   0.000   0.200   0.000    0.00
  20.200   20.88    1.74    0.65   0.000   0.200   0.000    0.00
  20.250   20.69    2.50    1.28   0.000   0.200   0.000    0.00
  20.300   20.84    4.09    1.52   0.000   0.200   0.000    0.00
  20.350   20.68    4.54    1.54   0.000   0.200   0.000    0.00
  20.400   20.44    2.57    1.36   0.000   0.200   0.000    0.00
  20.450   20.40    0.00    1.54   0.000   0.200   0.000    0.00
  20.500   20.07    2.07    2.04   0.000   0.200   0.000    0.00
  20.550   19.76    2.12    1.50   0.000   0.200   0.000    0.00
  20.600   19.57    1.92    0.77   0.000   0.200   0.000    0.00
  20.650   19.06    0.43    0.32   0.000   0.200   0.000    0.00
  20.700   19.40    3.83    0.97   0.000   0.200   0.000    0.00
  20.750   19.23    3.54    1.34   0.000   0.200   0.000    0.00
  20.800   19.45    1.40    1.01   0.000   0.200   0.000    0.00
  20.850   20.19    0.33    0.75   0.000   0.200   0.000    0.00
  20.900   19.62   -0.01    0.66   0.000   0.200   0.000    0.00
  20.950   20.76    0.83    0.48   0.000   0.200   0.000    0.00
  21.000   20.11    1.91    0.37   0.000   0.200   0.000    0.00
  21.050   19.83    3.32    0.80   0.000   0.200   0.000    0.00
  21.100   19.57    3.31    1.17   0.000   0.200   0.000    0.00
  21.150   19.28    5.22    1.38   0.000   0.200   0.000    0.00
  21.200   18.96    5.97    1.57   0.000   0.200   0.000    0.00
  21.250   18.93    4.52    0.45   0.000   0.200   0.000    0.00
  21.300   19.14    3.04   -0.23   0.000   0.200   0.000    0.00
  21.350   19.55    5.03   -0.37   0.000   0.200   0.000    0.00
  21.400   19.67    5.27   -0.49   0.000   0.200   0.000    0.00
  21.450   19.81    6.92   -0.54   0.000   0.200   0.000    0.00
  21.500   20.02    7.58   -0.08   0.000   0.200   0.000    0.00
  21.550   19.83    7.60    0.37   0.000   0.200   0.000    0.00
  21.600   20.20    6.84    1.05   0.000   0.200   0.000    0.00
  21.650   20.40    6.20    0.21   0.000   0.200   0.000    0.00
  21.700   20.89    7.12   -0.04   0.000   0.200   0.000    0.00
  21.750   20.83    6.80   -0.16   0.000   0.200   0.000    0.00
  21.800   21.62    6.13    0.16   0.000   0.200   0.000    0.00
  21.850   21.90    4.83    0.18   0.000   0.200   0.000    0.00
  21.900   21.82    4.57    0.58   0.000   0.200   0.000    0.00
  21.950   22.83    4.63    0.31   0.000   0.200   0.000    0.00
  22.000   22.94    4.26    0.05   0.000   0.200   0.000    0.00
  22.050   22.11    4.76   -0.06   0.000   0.200   0.000    0.00
  22.100   22.78    5.31   -0.19   0.000   0.200   0.000    0.00
  22.150   22.07    6.37    0.23   0.000   0.200   0.000    0.00
  22.200   22.06    6.72    0.48   0.000   0.200   0.000    0.00
  22.250   22.43    5.11    0.48   0.000   0.200   0.000    0.00
  22.300   22.68    3.50    0.06   0.000   0.200   0.000    0.00
  22.350   22.41    6.47   -0.26   0.000   0.200   0.000    0.00