! This hub-height wind-speed file was generated by TurbSim (v1.06.00, 21-Sep-2012) on 03-Feb-2018 at 23:34:20.
!
! The requested statistics for this data were:
!    Mean Total Wind Speed =   15.000 m/s
!    Turbulence Intensity  =   22.430%
!
!   Time  HorSpd  WndDir  VerSpd  HorShr  VerShr  LnVShr  GstSpd
!  (sec)   (m/s)   (deg)   (m/s)     (-)     (-)     (-)   (m/s)
   0.000   10.26   -0.14   -1.15   0.000   0.200   0.000    0.00
   0.050    9.87    4.24   -0.78   0.000   0.200   0.000    0.00
   0.100    9.71    7.68   -2.43   0.000   0.200   0.000    0.00
   0.150    9.65    7.34   -2.10   0.000   0.200   0.000    0.00
   0.200   10.00    9.99   -1.91   0.000   0.200   0.000    0.00
   0.250   10.27   13.65   -1.64   0.000   0.200   0.000    0.00
   0.300   10.44   16.36   -2.84   0.000   0.200   0.000    0.00
   0.350   10.07   13.87   -1.45   0.000   0.200   0.000    0.00
   0.400    9.83    6.73   -0.72   0.000   0.200   0.000    0.00
   0.450    9.70    7.81   -0.76   0.000   0.200   0.000    0.00
   0.500    9.35   11.72    0.31   0.000   0.200   0.000    0.00
   0.550    9.95   15.20    0.27   0.000   0.200   0.000    0.00
   0.600    9.84   19.24   -0.88   0.000   0.200   0.000    0.00
   0.650   10.82   17.87   -1.14   0.000   0.200   0.000    0.00
   0.700    9.70    5.23   -1.83   0.000   0.200   0.000    0.00
   0.750    9.22   10.60   -2.45   0.000   0.200   0.000    0.00
   0.800    9.67   12.47   -2.92   0.000   0.200   0.000    0.00
   0.850    9.89    9.11   -3.21   0.000   0.200   0.000    0.00
   0.900    9.83    8.54   -3.74   0.000   0.200   0.000    0.00
   0.950    9.94    7.50   -3.14   0.000   0.200   0.000    0.00
   1.000    9.20   14.45   -2.78   0.000   0.200   0.000    0.00
   1.050    9.73   10.71   -2.73   0.000   0.200   0.000    0.00
   1.100   10.22    7.14   -3.50   0.000   0.200   0.000    0.00
   1.150   10.60    7.50   -3.85   0.000   0.200   0.000    0.00
   1.200   10.75    5.08   -4.38   0.000   0.200   0.000    0.00
   1.250   10.68    2.33   -3.69   0.000   0.200   0.000    0.00
   1.300    9.60    1.64   -4.20   0.000   0.200   0.000    0.00
   1.350    9.72    0.87   -4.70   0.000   0.200   0.000    0.00
   1.400    9.99    3.01   -3.82   0.000   0.200   0.000    0.00
   1.450   10.34    3.16   -4.21   0.000   0.200   0.000    0.00
   1.500   10.06    4.20   -4.00   0.000   0.200   0.000    0.00
   1.550   10.31    6.54   -4.34   0.000   0.200   0.000    0.00
   1.600   11.05   10.03   -5.56   0.000   0.200   0.000    0.00
   1.650   12.35    7.49   -5.48   0.000   0.200   0.000    0.00
   1.700   12.58    6.17   -4.97   0.000   0.200   0.000    0.00
   1.750   12.95    8.76   -4.84   0.000   0.200   0.000    0.00
   1.800   12.68    8.37   -2.73   0.000   0.200   0.000    0.00
   1.850   12.89   12.77   -1.67   0.000   0.200   0.000    0.00
   1.900   12.17   10.82   -1.61   0.000   0.200   0.000    0.00
   1.950   12.27    8.73   -1.45   0.000   0.200   0.000    0.00
   2.000   12.39   10.28   -0.20   0.000   0.200   0.000    0.00
   2.050   12.20   11.68    0.66   0.000   0.200   0.000    0.00
   2.100   12.02   14.22    0.20   0.000   0.200   0.000    0.00
   2.150   10.98   12.15    0.03   0.000   0.200   0.000    0.00
   2.200   10.84    7.12    0.82   0.000   0.200   0.000    0.00
   2.250   11.47    7.61    0.22   0.000   0.200   0.000    0.00
   2.300   11.06    7.05    0.40   0.000   0.200   0.000    0.00
   2.350   10.96    3.34    0.79   0.000   0.200   0.000    0.00
   2.400   10.57    6.97    0.52   0.000   0.200   0.000    0.00
   2.450   10.88    5.38    0.18   0.000   0.200   0.000    0.00
   2.500   10.66    6.66    0.16   0.000   0.200   0.000    0.00
   2.550   10.00    1.35   -0.47   0.000   0.200   0.000    0.00
   2.600   10.69    0.47   -0.45   0.000   0.200   0.000    0.00
   2.650   10.59   -0.86   -0.35   0.000   0.200   0.000    0.00
   2.700   10.58    4.03   -0.79   0.000   0.200   0.000    0.00
   2.750   10.82    1.90   -0.95   0.000   0.200   0.000    0.00
   2.800   11.08   -1.47   -0.78   0.000   0.200   0.000    0.00
   2.850    9.81    0.16   -1.79   0.000   0.200   0.000    0.00
   2.900    9.65    3.93   -1.30   0.000   0.200   0.000    0.00
   2.950    9.66   -4.25   -1.51   0.000   0.200   0.000    0.00
   3.000   10.34   -8.95   -1.38   0.000   0.200   0.000    0.00
   3.050   10.26  -10.32   -1.39   0.000   0.200   0.000    0.00
   3.100    9.29   -8.03   -1.12   0.000   0.200   0.000    0.00
   3.150    8.60   -4.57   -0.21   0.000   0.200   0.000    0.00
   3.200    7.87   -1.86   -1.42   0.000   0.200   0.000    0.00
   3.250    8.84   -7.17   -1.88   0.000   0.200   0.000    0.00
   3.300    8.55    0.75   -1.49   0.000   0.200   0.000    0.00
   3.350    8.47   -4.06   -0.98   0.000   0.200   0.000    0.00
   3.400    9.26  -11.36   -1.42   0.000   0.200   0.000    0.00
   3.450    8.25   -6.37   -0.49   0.000   0.200   0.000    0.00
   3.500    8.84   -8.53   -0.32   0.000   0.200   0.000    0.00
   3.550    9.20  -10.60   -0.05   0.000   0.200   0.000    0.00
   3.600    8.47   -7.08    0.21   0.000   0.200   0.000    0.00
   3.650    8.86   -6.73   -0.35   0.000   0.200   0.000    0.00
   3.700    9.16    3.04    0.82   0.000   0.200   0.000    0.00
   3.750    9.70    0.65    1.40   0.000   0.200   0.000    0.00
   3.800    9.66   -2.25    0.82   0.000   0.200   0.000    0.00
   3.850    8.92   -8.23    1.70   0.000   0.200   0.000    0.00
   3.900    8.70   -1.26    2.35   0.000   0.200   0.000    0.00
   3.950    8.63    8.05    2.70   0.000   0.200   0.000    0.00
   4.000    9.25    6.90    2.66   0.000   0.200   0.000    0.00
   4.050    9.28   10.68    1.55   0.000   0.200   0.000    0.00
   4.100    9.38    4.64    1.01   0.000   0.200   0.000    0.00
   4.150    8.79    5.52    1.44   0.000   0.200   0.000    0.00
   4.200    8.36    8.00    1.66   0.000   0.200   0.000    0.00
   4.250    8.71   14.56    1.08   0.000   0.200   0.000    0.00
   4.300    9.38   11.38    1.14   0.000   0.200   0.000    0.00
   4.350    8.61    7.38    1.75   0.000   0.200   0.000    0.00
   4.400    8.84   19.07    1.44   0.000   0.200   0.000    0.00
   4.450    8.57   17.85    1.52   0.000   0.200   0.000    0.00
   4.500    8.76   13.00    1.80   0.000   0.200   0.000    0.00
   4.550    8.64   18.00    0.84   0.000   0.200   0.000    0.00
   4.600    9.08   18.94    0.17   0.000   0.200   0.000    0.00
   4.650    9.60   17.03    0.79   0.000   0.200   0.000    0.00
   4.700   10.51   15.91    0.64   0.000   0.200   0.000    0.00
   4.750   11.48   17.71    0.54   0.000   0.200   0.000    0.00
   4.800   11.00   13.71    0.73   0.000   0.200   0.000    0.00
   4.850   10.74   12.02    1.67   0.000   0.200   0.000    0.00
   4.900   10.54    9.09    0.39   0.000   0.200   0.000    0.00
   4.950   10.34   12.33    0.91   0.000   0.200   0.000    0.00
   5.000    9.87    1.80    0.67   0.000   0.200   0.000    0.00
   5.050   10.36    2.57    0.85   0.000   0.200   0.000    0.00
   5.100    9.94   -0.76    0.85   0.000   0.200   0.000    0.00
   5.150    9.15    3.55    0.93   0.000   0.200   0.000    0.00
   5.200    8.38   -0.41    1.01   0.000   0.200   0.000    0.00
   5.250    9.69    9.68    0.54   0.000   0.200   0.000    0.00
   5.300   10.56    4.82    0.25   0.000   0.200   0.000    0.00
   5.350   11.43    5.20    1.19   0.000   0.200   0.000    0.00
   5.400   11.80   10.29    0.08   0.000   0.200   0.000    0.00
   5.450   11.50   11.76    0.60   0.000   0.200   0.000    0.00
   5.500   10.46    9.70    0.38   0.000   0.200   0.000    0.00
   5.550   10.93    9.10    0.64   0.000   0.200   0.000    0.00
   5.600   10.94   13.42    0.13   0.000   0.200   0.000    0.00
   5.650   11.40   12.92   -0.06   0.000   0.200   0.000    0.00
   5.700   11.08   17.63    0.38   0.000   0.200   0.000    0.00
   5.750   10.78   13.06    0.42   0.000   0.200   0.000    0.00
   5.800   10.49    7.71   -1.26   0.000   0.200   0.000    0.00
   5.850    9.81    7.26   -1.41   0.000   0.200   0.000    0.00
   5.900   10.28    0.92   -0.85   0.000   0.200   0.000    0.00
   5.950   10.41    3.09    0.70   0.000   0.200   0.000    0.00
   6.000    9.79    1.89    0.86   0.000   0.200   0.000    0.00
   6.050   10.01   -1.48    0.73   0.000   0.200   0.000    0.00
   6.100   10.51   -4.66    0.33   0.000   0.200   0.000    0.00
   6.150   10.33   -5.08   -0.38   0.000   0.200   0.000    0.00
   6.200   10.05   -2.96   -0.53   0.000   0.200   0.000    0.00
   6.250   10.62   -2.81   -1.09   0.000   0.200   0.000    0.00
   6.300    9.99   -4.50   -0.84   0.000   0.200   0.000    0.00
   6.350   10.00    1.24   -0.69   0.000   0.200   0.000    0.00
   6.400   10.43   -2.86    0.79   0.000   0.200   0.000    0.00
   6.450   10.22   -4.37    1.14   0.000   0.200   0.000    0.00
   6.500    9.70   -1.91   -0.22   0.000   0.200   0.000    0.00
   6.550    8.98   -5.46    0.12   0.000   0.200   0.000    0.00
   6.600    8.93   -0.98    0.64   0.000   0.200   0.000    0.00
   6.650   10.01   -2.27    0.65   0.000   0.200   0.000    0.00
   6.700   10.06    0.47    0.03   0.000   0.200   0.000    0.00
   6.750    9.89   -5.44    0.24   0.000   0.200   0.000    0.00
   6.800   10.93  -14.37    1.54   0.000   0.200   0.000    0.00
   6.850   11.93  -18.56    0.68   0.000   0.200   0.000    0.00
   6.900   11.58  -18.33    0.04   0.000   0.200   0.000    0.00
   6.950   10.89  -15.92   -0.78   0.000   0.200   0.000    0.00
   7.000   11.85  -16.11   -0.25   0.000   0.200   0.000    0.00
   7.050   12.02  -15.20   -1.14   0.000   0.200   0.000    0.00
   7.100   11.06  -19.32   -1.90   0.000   0.200   0.000    0.00
   7.150   11.11  -16.45   -1.93   0.000   0.200   0.000    0.00
   7.200   11.18  -15.09   -1.62   0.000   0.200   0.000    0.00
   7.250   10.56   -8.78   -0.91   0.000   0.200   0.000    0.00
   7.300    8.74   -3.61   -1.38   0.000   0.200   0.000    0.00
   7.350    9.10   -8.98   -1.48   0.000   0.200   0.000    0.00
   7.400    8.84   -5.76   -2.24   0.000   0.200   0.000    0.00
   7.450    9.63   -3.93   -2.02   0.000   0.200   0.000    0.00
   7.500    9.50   -0.20   -1.56   0.000   0.200   0.000    0.00
   7.550    8.81    0.00   -2.39   0.000   0.200   0.000    0.00
   7.600    9.17   -7.97   -1.18   0.000   0.200   0.000    0.00
   7.650    8.85   -4.89    0.40   0.000   0.200   0.000    0.00
   7.700    9.03   -6.95   -0.01   0.000   0.200   0.000    0.00
   7.750    9.18   -3.86   -0.71   0.000   0.200   0.000    0.00
   7.800   10.17   -4.59   -1.56   0.000   0.200   0.000    0.00
   7.850    9.24   -2.31   -2.33   0.000   0.200   0.000    0.00
   7.900    9.66   -0.62   -2.71   0.000   0.200   0.000    0.00
   7.950   10.91    2.69   -2.56   0.000   0.200   0.000    0.00
   8.000   10.62    3.99   -1.98   0.000   0.200   0.000    0.00
   8.050   10.99    3.77   -2.82   0.000   0.200   0.000    0.00
   8.100   10.97    0.09   -3.09   0.000   0.200   0.000    0.00
   8.150   11.21   -0.38   -3.55   0.000   0.200   0.000    0.00
   8.200   11.93   -0.54   -3.07   0.000   0.200   0.000    0.00
   8.250   11.61    2.86   -2.42   0.000   0.200   0.000    0.00
   8.300   10.30   -3.47   -2.09   0.000   0.200   0.000    0.00
   8.350    9.30   -1.28   -1.81   0.000   0.200   0.000    0.00
   8.400    9.43    3.47   -2.25   0.000   0.200   0.000    0.00
   8.450    9.29    3.47   -2.99   0.000   0.200   0.000    0.00
   8.500   10.41    7.74   -2.77   0.000   0.200   0.000    0.00
   8.550   11.08    4.52   -2.43   0.000   0.200   0.000    0.00
   8.600   10.85    0.86   -2.07   0.000   0.200   0.000    0.00
   8.650   11.08    1.86   -1.30   0.000   0.200   0.000    0.00
   8.700   11.18   -1.20   -1.25   0.000   0.200   0.000    0.00
   8.750   10.77   -0.75   -2.14   0.000   0.200   0.000    0.00
   8.800   10.55    7.64   -1.78   0.000   0.200   0.000    0.00
   8.850   10.62    4.59   -1.57   0.000   0.200   0.000    0.00
   8.900   10.45    9.88   -1.96   0.000   0.200   0.000    0.00
   8.950   10.54   13.35   -2.31   0.000   0.200   0.000    0.00
   9.000    9.61   13.49   -2.05   0.000   0.200   0.000    0.00
   9.050    9.61   16.27   -1.79   0.000   0.200   0.000    0.00
   9.100    9.92   14.29   -2.42   0.000   0.200   0.000    0.00
   9.150   10.60   13.00   -1.34   0.000   0.200   0.000    0.00
   9.200   10.63   12.56   -0.50   0.000   0.200   0.000    0.00
   9.250   11.09   11.67   -1.01   0.000   0.200   0.000    0.00
   9.300   11.02    5.28   -2.71   0.000   0.200   0.000    0.00
   9.350   10.78    0.28   -2.34   0.000   0.200   0.000    0.00
   9.400   10.64   -3.88   -1.02   0.000   0.200   0.000    0.00
   9.450   11.15   -3.15   -0.10   0.000   0.200   0.000    0.00
   9.500   10.85   -0.23    0.29   0.000   0.200   0.000    0.00
   9.550   10.89   -2.83    0.42   0.000   0.200   0.000    0.00
   9.600   10.93   -0.21    0.52   0.000   0.200   0.000    0.00
   9.650   11.63    0.40   -1.14   0.000   0.200   0.000    0.00
   9.700   11.87    4.92   -1.75   0.000   0.200   0.000    0.00
   9.750   11.09   11.26   -1.78   0.000   0.200   0.000    0.00
   9.800   10.41    5.26   -0.08   0.000   0.200   0.000    0.00
   9.850   11.05    1.14   -0.58   0.000   0.200   0.000    0.00
   9.900   11.33   -7.40   -0.37   0.000   0.200   0.000    0.00
   9.950   11.57   -6.19    0.73   0.000   0.200   0.000    0.00
  10.000   11.49   -5.76    1.10   0.000   0.200   0.000    0.00
  10.050   11.95    0.23    1.23   0.000   0.200   0.000    0.00
  10.100   12.18    4.38    0.81   0.000   0.200   0.000    0.00
  10.150   12.60    0.46    0.99   0.000   0.200   0.000    0.00
  10.200   12.32   -1.14    0.31   0.000   0.200   0.000    0.00
  10.250   12.27   -0.70   -0.89   0.000   0.200   0.000    0.00
  10.300   11.60   -2.18   -0.70   0.000   0.200   0.000    0.00
  10.350   11.55   -3.98   -0.73   0.000   0.200   0.000    0.00
  10.400   11.65   -5.56   -1.79   0.000   0.200   0.000    0.00
  10.450   11.12   -4.72   -2.00   0.000   0.200   0.000    0.00
  10.500   11.01   -3.79   -2.16   0.000   0.200   0.000    0.00
  10.550   11.16   -2.11   -1.72   0.000   0.200   0.000    0.00
  10.600   11.58   -3.81   -1.25   0.000   0.200   0.000    0.00
  10.650   11.19    0.13   -1.45   0.000   0.200   0.000    0.00
  10.700   11.58    1.78   -0.55   0.000   0.200   0.000    0.00
  10.750   12.28    0.77   -0.33   0.000   0.200   0.000    0.00
  10.800   11.60    4.15   -1.33   0.000   0.200   0.000    0.00
  10.850   11.12    4.62   -1.56   0.000   0.200   0.000    0.00
  10.900   10.88    6.94   -1.40   0.000   0.200   0.000    0.00
  10.950    9.61    9.77   -1.57   0.000   0.200   0.000    0.00
  11.000    9.78   -1.67   -1.63   0.000   0.200   0.000    0.00
  11.050   10.66   -2.18   -0.66   0.000   0.200   0.000    0.00
  11.100   11.45   -0.88   -0.58   0.000   0.200   0.000    0.00
  11.150   11.59   -1.59    1.12   0.000   0.200   0.000    0.00
  11.200   11.39   -1.38    0.80   0.000   0.200   0.000    0.00
  11.250   11.28   -0.73   -0.11   0.000   0.200   0.000    0.00
  11.300   11.33   -0.51   -0.88   0.000   0.200   0.000    0.00
  11.350   10.39   -7.85   -1.35   0.000   0.200   0.000    0.00
  11.400   10.38   -3.86   -1.14   0.000   0.200   0.000    0.00
  11.450   10.35  -11.08   -1.31   0.000   0.200   0.000    0.00
  11.500   10.39  -13.91   -0.30   0.000   0.200   0.000    0.00
  11.550    9.12   -7.46   -1.56   0.000   0.200   0.000    0.00
  11.600    8.11  -10.12   -1.10   0.000   0.200   0.000    0.00
  11.650    9.07   -9.34   -1.34   0.000   0.200   0.000    0.00
  11.700    9.69  -14.05   -1.74   0.000   0.200   0.000    0.00
  11.750    8.80  -14.71   -1.52   0.000   0.200   0.000    0.00
  11.800    8.34  -20.51   -1.17   0.000   0.200   0.000    0.00
  11.850    9.19  -20.43   -0.76   0.000   0.200   0.000    0.00
  11.900    8.86  -16.93   -0.76   0.000   0.200   0.000    0.00
  11.950    8.27  -24.73   -0.66   0.000   0.200   0.000    0.00
  12.000    9.16  -23.56   -1.71   0.000   0.200   0.000    0.00
  12.050    9.10  -19.82   -1.45   0.000   0.200   0.000    0.00
  12.100    8.68  -19.57   -1.34   0.000   0.200   0.000    0.00
  12.150    9.15  -22.99   -1.79   0.000   0.200   0.000    0.00
  12.200    8.45  -29.21   -2.08   0.000   0.200   0.000    0.00
  12.250    9.12  -28.46   -3.39   0.000   0.200   0.000    0.00
  12.300    8.40  -24.74   -2.66   0.000   0.200   0.000    0.00
  12.350    7.82  -18.21   -4.46   0.000   0.200   0.000    0.00
  12.400    8.60  -28.71   -3.96   0.000   0.200   0.000    0.00
  12.450    8.90  -30.42   -2.42   0.000   0.200   0.000    0.00
  12.500    9.15  -30.57   -1.66   0.000   0.200   0.000    0.00
  12.550    8.91  -29.66   -0.79   0.000   0.200   0.000    0.00
  12.600    9.25  -22.92   -1.42   0.000   0.200   0.000    0.00
  12.650    9.65  -25.39   -1.36   0.000   0.200   0.000    0.00
  12.700    9.49  -22.91   -0.71   0.000   0.200   0.000    0.00
  12.750    8.65  -22.63   -0.67   0.000   0.200   0.000    0.00
  12.800    8.39  -24.11   -0.64   0.000   0.200   0.000    0.00
  12.850    8.59  -25.31   -0.71   0.000   0.200   0.000    0.00
  12.900    9.64  -30.30    0.24   0.000   0.200   0.000    0.00
  12.950    8.94  -28.60   -0.73   0.000   0.200   0.000    0.00
  13.000    9.28  -30.04   -0.68   0.000   0.200   0.000    0.00
  13.050   10.12  -29.39   -0.31   0.000   0.200   0.000    0.00
  13.100    9.97  -21.49   -0.87   0.000   0.200   0.000    0.00
  13.150    9.32  -22.08   -0.67   0.000   0.200   0.000    0.00
  13.200    8.83  -26.30   -0.48   0.000   0.200   0.000    0.00
  13.250    9.42  -27.82   -0.01   0.000   0.200   0.000    0.00
  13.300    9.33  -27.36   -0.72   0.000   0.200   0.000    0.00
  13.350    9.30  -26.18   -1.37   0.000   0.200   0.000    0.00
  13.400   10.28  -17.93   -0.88   0.000   0.200   0.000    0.00
  13.450   10.44  -22.83   -0.46   0.000   0.200   0.000    0.00
  13.500   10.05  -24.74   -0.43   0.000   0.200   0.000    0.00
  13.550   10.04  -23.00   -0.72   0.000   0.200   0.000    0.00
  13.600   10.23  -17.15   -0.18   0.000   0.200   0.000    0.00
  13.650   10.09  -13.81   -0.64   0.000   0.200   0.000    0.00
  13.700   10.22   -4.49   -1.20   0.000   0.200   0.000    0.00
  13.750   10.07   -2.94   -1.36   0.000   0.200   0.000    0.00
  13.800    9.16    5.66   -1.75   0.000   0.200   0.000    0.00
  13.850    8.84   -2.96   -1.76   0.000   0.200   0.000    0.00
  13.900    9.21   -8.23   -1.76   0.000   0.200   0.000    0.00
  13.950    8.41   -6.56   -1.74   0.000   0.200   0.000    0.00
  14.000    9.48   -3.58   -1.96   0.000   0.200   0.000    0.00
  14.050    9.47   -1.11   -2.97   0.000   0.200   0.000    0.00
  14.100    9.96   -2.18   -2.42   0.000   0.200   0.000    0.00
  14.150   10.08    0.87   -3.44   0.000   0.200   0.000    0.00
  14.200   10.28   -1.48   -3.21   0.000   0.200   0.000    0.00
  14.250    9.44   -1.51   -2.81   0.000   0.200   0.000    0.00
  14.300    9.42    1.13   -3.24   0.000   0.200   0.000    0.00
  14.350   10.16    5.73   -3.92   0.000   0.200   0.000    0.00
  14.400   11.39    4.62   -4.24   0.000   0.200   0.000    0.00
  14.450   10.62   -1.00   -3.65   0.000   0.200   0.000    0.00
  14.500    9.53   -3.52   -3.30   0.000   0.200   0.000    0.00
  14.550    9.56   -3.99   -3.27   0.000   0.200   0.000    0.00
  14.600    9.68   -7.87   -3.49   0.000   0.200   0.000    0.00
  14.650    9.83   -8.07   -3.30   0.000   0.200   0.000    0.00
  14.700   10.01  -12.68   -2.82   0.000   0.200   0.000    0.00
  14.750   10.65  -13.76   -3.42   0.000   0.200   0.000    0.00
  14.800   11.49  -15.12   -3.47   0.000   0.200   0.000    0.00
  14.850   11.36  -15.91   -2.42   0.000   0.200   0.000    0.00
  14.900   11.38  -12.57   -2.61   0.000   0.200   0.000    0.00
  14.950   10.87  -10.15   -2.20   0.000   0.200   0.000    0.00
  15.000   10.22   -8.78   -0.62   0.000   0.200   0.000    0.00
  15.050   11.06  -10.81   -0.54   0.000   0.200   0.000    0.00
  15.100   11.93  -13.91   -0.23   0.000   0.200   0.000    0.00
  15.150   10.59  -16.78    0.67   0.000   0.200   0.000    0.00
  15.200    9.62  -16.39    0.13   0.000   0.200   0.000    0.00
  15.250   10.40  -13.09   -0.66   0.000   0.200   0.000    0.00
  15.300   11.35  -12.01    0.29   0.000   0.200   0.000    0.00
  15.350   11.27  -18.80    1.32   0.000   0.200   0.000    0.00
  15.400   12.17  -14.80    0.27   0.000   0.200   0.000    0.00
  15.450   11.74   -8.06   -0.11   0.000   0.200   0.000    0.00
  15.500   11.78   -9.47   -0.46   0.000   0.200   0.000    0.00
  15.550   11.81   -4.36   -0.21   0.000   0.200   0.000    0.00
  15.600   11.27   -4.48   -1.18   0.000   0.200   0.000    0.00
  15.650   11.85   -5.86   -0.91   0.000   0.200   0.000    0.00
  15.700   12.10   -4.02   -0.78   0.000   0.200   0.000    0.00
  15.750   11.86   -4.92   -0.61   0.000   0.200   0.000    0.00
  15.800   11.90   -3.41   -0.64   0.000   0.200   0.000    0.00
  15.850   12.54   -0.37    0.12   0.000   0.200   0.000    0.00
  15.900   12.73   -4.13    0.43   0.000   0.200   0.000    0.00
  15.950   13.45   -5.20   -0.13   0.000   0.200   0.000    0.00
  16.000   13.88   -2.16   -0.87   0.000   0.200   0.000    0.00
  16.050   15.01   -3.34   -2.52   0.000   0.200   0.000    0.00
  16.100   14.48   -4.25   -2.81   0.000   0.200   0.000    0.00
  16.150   14.47   -1.27   -2.59   0.000   0.200   0.000    0.00
  16.200   15.12    0.01   -1.82   0.000   0.200   0.000    0.00
  16.250   14.90    0.76   -3.17   0.000   0.200   0.000    0.00
  16.300   13.99   -0.41   -3.27   0.000   0.200   0.000    0.00
  16.350   13.87    3.65   -3.10   0.000   0.200   0.000    0.00
  16.400   13.32    3.02   -3.28   0.000   0.200   0.000    0.00
  16.450   12.41   -0.84   -3.61   0.000   0.200   0.000    0.00
  16.500   11.58   -0.71   -3.26   0.000   0.200   0.000    0.00
  16.550   12.01    2.03   -3.11   0.000   0.200   0.000    0.00
  16.600   11.99    6.17   -2.72   0.000   0.200   0.000    0.00
  16.650   11.21    4.30   -2.67   0.000   0.200   0.000    0.00
  16.700   10.81    4.56   -2.07   0.000   0.200   0.000    0.00
  16.750   10.97    8.43   -1.60   0.000   0.200   0.000    0.00
  16.800   12.12    9.58   -1.81   0.000   0.200   0.000    0.00
  16.850   12.03   10.25   -1.19   0.000   0.200   0.000    0.00
  16.900   11.95   15.10   -1.90   0.000   0.200   0.000    0.00
  16.950   11.10   13.85   -1.79   0.000   0.200   0.000    0.00
  17.000   11.13   12.95   -1.42   0.000   0.200   0.000    0.00
  17.050   11.22   16.18   -1.57   0.000   0.200   0.000    0.00
  17.100   10.92   12.41   -0.45   0.000   0.200   0.000    0.00
  17.150   10.19    5.28   -0.38   0.000   0.200   0.000    0.00
  17.200   10.23    4.73    0.18   0.000   0.200   0.000    0.00
  17.250   10.06    9.15    0.91   0.000   0.200   0.000    0.00
  17.300    9.53    6.67   -0.29   0.000   0.200   0.000    0.00
  17.350   10.00    7.30   -0.26   0.000   0.200   0.000    0.00
  17.400   10.52    3.56   -0.31   0.000   0.200   0.000    0.00
  17.450    9.68    2.11    0.64   0.000   0.200   0.000    0.00
  17.500   10.10   -1.27    0.60   0.000   0.200   0.000    0.00
  17.550   10.98   -1.24    1.28   0.000   0.200   0.000    0.00
  17.600   11.26   -7.45    0.65   0.000   0.200   0.000    0.00
  17.650   11.59   -8.37    0.76   0.000   0.200   0.000    0.00
  17.700   10.57   -1.21    1.72   0.000   0.200   0.000    0.00
  17.750   10.99   -1.61    0.71   0.000   0.200   0.000    0.00
  17.800   11.01    3.80    0.51   0.000   0.200   0.000    0.00
  17.850   11.17    1.30    0.13   0.000   0.200   0.000    0.00
  17.900   11.59    0.90    0.06   0.000   0.200   0.000    0.00
  17.950   11.90    1.86    0.33   0.000   0.200   0.000    0.00
  18.000   11.54    6.17    0.72   0.000   0.200   0.000    0.00
  18.050   11.82    6.20    0.73   0.000   0.200   0.000    0.00
  18.100   12.38    5.19    0.14   0.000   0.200   0.000    0.00
  18.150   11.95   10.03   -0.26   0.000   0.200   0.000    0.00
  18.200   12.38    7.67    0.11   0.000   0.200   0.000    0.00
  18.250   12.18    4.44    0.67   0.000   0.200   0.000    0.00
  18.300   12.18    4.65    0.12   0.000   0.200   0.000    0.00
  18.350   10.76    4.77    0.49   0.000   0.200   0.000    0.00
  18.400   11.64    9.67    0.35   0.000   0.200   0.000    0.00
  18.450   11.97    9.59    0.54   0.000   0.200   0.000    0.00
  18.500   11.61    6.52    1.73   0.000   0.200   0.000    0.00
  18.550   11.57    3.27    1.56   0.000   0.200   0.000    0.00
  18.600   11.27    4.49    2.04   0.000   0.200   0.000    0.00
  18.650   10.61    5.16    1.25   0.000   0.200   0.000    0.00
  18.700   10.14    6.30    0.65   0.000   0.200   0.000    0.00
  18.750   10.34    7.35    0.83   0.000   0.200   0.000    0.00
  18.800   10.06    8.41    0.52   0.000   0.200   0.000    0.00
  18.850   10.37    5.51    0.29   0.000   0.200   0.000    0.00
  18.900   10.69    7.80    1.13   0.000   0.200   0.000    0.00
  18.950   11.46    8.78    2.14   0.000   0.200   0.000    0.00
  19.000   12.13   13.14    1.47   0.000   0.200   0.000    0.00
  19.050   11.84   11.88    1.20   0.000   0.200   0.000    0.00
  19.100   12.42   10.35    0.53   0.000   0.200   0.000    0.00
  19.150   12.81    9.20    0.21   0.000   0.200   0.000    0.00
  19.200   12.88    8.35    0.19   0.000   0.200   0.000    0.00
  19.250   12.31   11.36   -0.08   0.000   0.200   0.000    0.00
  19.300   11.04    4.47   -0.74   0.000   0.200   0.000    0.00
  19.350   11.69    6.45   -0.58   0.000   0.200   0.000    0.00
  19.400   11.67    4.04   -0.38   0.000   0.200   0.000    0.00
  19.450   10.97    2.18    0.65   0.000   0.200   0.000    0.00
  19.500   11.41    3.53    1.21   0.000   0.200   0.000    0.00
  19.550   11.08    7.77    2.50   0.000   0.200   0.000    0.00
  19.600   11.18    9.38    3.53   0.000   0.200   0.000    0.00
  19.650   11.44    8.82    4.50   0.000   0.200   0.000    0.00
  19.700   12.05    6.27    3.85   0.000   0.200   0.000    0.00
  19.750   11.18    3.58    3.98   0.000   0.200   0.000    0.00
  19.800   11.02    9.56    4.63   0.000   0.200   0.000    0.00
  19.850   11.09    3.51    3.28   0.000   0.200   0.000    0.00
  19.900   11.20   -1.05    2.92   0.000   0.200   0.000    0.00
  19.950   11.02   -1.80    2.85   0.000   0.200   0.000    0.00
  20.000   11.00   -3.40    2.34   0.000   0.200   0.000    0.00
  20.050   10.48   -2.28    2.12   0.000   0.200   0.000    0.00
  20.100    9.99   -5.88    2.07   0.000   0.200   0.000    0.00
  20.150    9.70   -9.06    2.15   0.000   0.200   0.000    0.00
  20.200    9.97  -11.39    2.43   0.000   0.200   0.000    0.00
  20.250   10.12  -15.59    2.37   0.000   0.200   0.000    0.00
  20.300   10.14  -13.85    1.41   0.000   0.200   0.000    0.00
  20.350   10.82  -13.10    2.12   0.000   0.200   0.000    0.00
  20.400   11.11  -11.21    2.57   0.000   0.200   0.000    0.00
  20.450   10.93  -10.48    1.32   0.000   0.200   0.000    0.00
  20.500   11.26  -10.77    1.16   0.000   0.200   0.000    0.00
  20.550   10.90  -12.61    1.91   0.000   0.200   0.000    0.00
  20.600   11.10   -8.82    0.54   0.000   0.200   0.000    0.00
  20.650   10.69   -9.51    1.66   0.000   0.200   0.000    0.00
  20.700    9.06   -3.70    1.69   0.000   0.200   0.000    0.00
  20.750    9.63   -5.96    1.47   0.000   0.200   0.000    0.00
  20.800    9.69   -5.79    1.84   0.000   0.200   0.000    0.00
  20.850    9.48   -3.72    1.80   0.000   0.200   0.000    0.00
  20.900   10.44  -12.27    2.59   0.000   0.200   0.000    0.00
  20.950   10.05   -6.85    1.97   0.000   0.200   0.000    0.00
  21.000    9.32   -3.46    1.21   0.000   0.200   0.000    0.00
  21.050    9.13   -8.68   -0.27   0.000   0.200   0.000    0.00
  21.100    9.78   -5.32   -0.30   0.000   0.200   0.000    0.00
  21.150    9.41   -3.61    0.97   0.000   0.200   0.000    0.00
  21.200    8.42    0.38    1.25   0.000   0.200   0.000    0.00
  21.250    9.83    4.83    1.56   0.000   0.200   0.000    0.00
  21.300   10.63    6.20    2.48   0.000   0.200   0.000    0.00
  21.350   10.23    5.20    2.49   0.000   0.200   0.000    0.00
  21.400   10.67    4.93    1.57   0.000   0.200   0.000    0.00
  21.450   10.87    5.60    1.10   0.000   0.200   0.000    0.00
  21.500   11.94    3.64    0.00   0.000   0.200   0.000    0.00
  21.550   12.72    4.12    0.42   0.000   0.200   0.000    0.00
  21.600   13.08    3.82   -0.05   0.000   0.200   0.000    0.00
  21.650   12.26    6.97   -0.15   0.000   0.200   0.000    0.00
  21.700   12.60    8.95   -0.59   0.000   0.200   0.000    0.00
  21.750   13.45    5.72   -1.33   0.000   0.200   0.000    0.00
  21.800   14.22    4.11   -1.80   0.000   0.200   0.000    0.00
  21.850   15.05    5.07   -1.08   0.000   0.200   0.000    0.00
  21.900   15.20    6.25   -0.48   0.000   0.200   0.000    0.00
  21.950   15.14   -0.25   -0.99   0.000   0.200   0.000    0.00
  22.000   14.40   -2.61   -0.28   0.000   0.200   0.000    0.00
  22.050   14.09   -3.37   -0.66   0.000   0.200   0.000    0.00
  22.100   12.92    1.46   -1.26   0.000   0.200   0.000    0.00
  22.150   13.11    1.52   -1.67   0.000   0.200   0.000    0.00
  22.200   13.21   -2.94   -0.90   0.000   0.200   0.000    0.00
  22.250   13.05   -0.96   -0.79   0.000   0.200   0.000    0.00
  22.300   13.66   -0.58   -0.83   0.000   0.200   0.000    0.00
  22.350   14.15   -3.70    0.89   0.000   0.200   0.000    0.00