! This hub-height wind-speed file was generated by TurbSim (v1.06.00, 21-Sep-2012) on 03-Feb-2018 at 23:35:02.
!
! The requested statistics for this data were:
!    Mean Total Wind Speed =    5.000 m/s
!    Turbulence Intensity  =   51.162%
!
!   Time  HorSpd  WndDir  VerSpd  HorShr  VerShr  LnVShr  GstSpd
!  (sec)   (m/s)   (deg)   (m/s)     (-)     (-)     (-)   (m/s)
   0.000    7.52   24.91   -1.47   0.000   0.200   0.000    0.00
   0.050    7.47   24.81   -1.49   0.000   0.200   0.000    0.00
   0.100    7.38   22.45   -1.99   0.000   0.200   0.000    0.00
   0.150    7.46   19.55   -2.07   0.000   0.200   0.000    0.00
   0.200    7.56   18.29   -1.93   0.000   0.200   0.000    0.00
   0.250    7.83   20.67   -1.60   0.000   0.200   0.000    0.00
   0.300    7.60   21.25   -1.45   0.000   0.200   0.000    0.00
   0.350    7.83   22.58   -1.32   0.000   0.200   0.000    0.00
   0.400    7.64   25.29   -0.90   0.000   0.200   0.000    0.00
   0.450    6.66   26.27   -0.96   0.000   0.200   0.000    0.00
   0.500    6.49   28.50   -1.02   0.000   0.200   0.000    0.00
   0.550    6.23   28.12   -0.97   0.000   0.200   0.000    0.00
   0.600    6.01   28.88   -1.31   0.000   0.200   0.000    0.00
   0.650    5.72   28.08   -0.93   0.000   0.200   0.000    0.00
   0.700    5.92   31.53   -0.67   0.000   0.200   0.000    0.00
   0.750    6.18   25.65   -1.28   0.000   0.200   0.000    0.00
   0.800    6.13   26.05   -1.79   0.000   0.200   0.000    0.00
   0.850    6.31   27.50   -1.36   0.000   0.200   0.000    0.00
   0.900    5.95   27.99   -1.13   0.000   0.200   0.000    0.00
   0.950    5.82   28.00   -1.27   0.000   0.200   0.000    0.00
   1.000    6.09   24.52   -0.77   0.000   0.200   0.000    0.00
   1.050    5.76   19.40   -1.35   0.000   0.200   0.000    0.00
   1.100    5.41   23.84   -1.13   0.000   0.200   0.000    0.00
   1.150    5.53   22.95   -1.08   0.000   0.200   0.000    0.00
   1.200    5.58   25.32   -1.12   0.000   0.200   0.000    0.00
   1.250    5.28   24.20   -1.35   0.000   0.200   0.000    0.00
   1.300    5.01   24.34   -1.15   0.000   0.200   0.000    0.00
   1.350    5.26   22.31   -0.49   0.000   0.200   0.000    0.00
   1.400    4.82   19.56   -0.81   0.000   0.200   0.000    0.00
   1.450    5.11   16.98   -0.81   0.000   0.200   0.000    0.00
   1.500    5.51   14.81   -0.96   0.000   0.200   0.000    0.00
   1.550    5.75   20.03   -1.62   0.000   0.200   0.000    0.00
   1.600    5.87   24.50   -1.13   0.000   0.200   0.000    0.00
   1.650    5.10   22.09   -1.29   0.000   0.200   0.000    0.00
   1.700    4.90   21.48   -1.34   0.000   0.200   0.000    0.00
   1.750    4.96   22.76   -0.95   0.000   0.200   0.000    0.00
   1.800    4.80   26.16   -0.91   0.000   0.200   0.000    0.00
   1.850    4.81   22.27   -1.44   0.000   0.200   0.000    0.00
   1.900    4.97   17.67   -1.41   0.000   0.200   0.000    0.00
   1.950    5.35   23.33   -1.61   0.000   0.200   0.000    0.00
   2.000    5.91   15.09   -1.21   0.000   0.200   0.000    0.00
   2.050    5.68    5.05   -1.26   0.000   0.200   0.000    0.00
   2.100    5.65    3.55   -1.51   0.000   0.200   0.000    0.00
   2.150    5.74    6.58   -1.65   0.000   0.200   0.000    0.00
   2.200    5.06    3.99   -1.67   0.000   0.200   0.000    0.00
   2.250    5.13    0.28   -2.31   0.000   0.200   0.000    0.00
   2.300    4.92    7.64   -2.47   0.000   0.200   0.000    0.00
   2.350    5.08    6.55   -1.87   0.000   0.200   0.000    0.00
   2.400    5.24   -0.61   -1.60   0.000   0.200   0.000    0.00
   2.450    5.23    0.28   -1.01   0.000   0.200   0.000    0.00
   2.500    5.31    1.65   -1.08   0.000   0.200   0.000    0.00
   2.550    5.17    5.03   -1.39   0.000   0.200   0.000    0.00
   2.600    4.81    1.37   -1.40   0.000   0.200   0.000    0.00
   2.650    4.57   -1.87   -1.11   0.000   0.200   0.000    0.00
   2.700    4.56   -1.42   -0.87   0.000   0.200   0.000    0.00
   2.750    4.72   -6.19   -1.06   0.000   0.200   0.000    0.00
   2.800    4.58   -8.18   -0.75   0.000   0.200   0.000    0.00
   2.850    4.41  -11.17   -0.77   0.000   0.200   0.000    0.00
   2.900    4.64   -4.35   -0.74   0.000   0.200   0.000    0.00
   2.950    4.58   -1.50   -0.37   0.000   0.200   0.000    0.00
   3.000    4.99   -0.60   -0.53   0.000   0.200   0.000    0.00
   3.050    5.13    0.87   -0.61   0.000   0.200   0.000    0.00
   3.100    5.12   10.10   -0.45   0.000   0.200   0.000    0.00
   3.150    5.87   11.26   -0.27   0.000   0.200   0.000    0.00
   3.200    6.18   10.84   -0.84   0.000   0.200   0.000    0.00
   3.250    5.92   12.54   -0.62   0.000   0.200   0.000    0.00
   3.300    5.16    7.74   -0.58   0.000   0.200   0.000    0.00
   3.350    5.41    6.88   -0.86   0.000   0.200   0.000    0.00
   3.400    5.50    4.20   -1.28   0.000   0.200   0.000    0.00
   3.450    4.71    7.28   -1.84   0.000   0.200   0.000    0.00
   3.500    4.49   10.38   -1.76   0.000   0.200   0.000    0.00
   3.550    4.81    8.98   -1.69   0.000   0.200   0.000    0.00
   3.600    4.78    8.88   -2.20   0.000   0.200   0.000    0.00
   3.650    4.98   12.57   -2.03   0.000   0.200   0.000    0.00
   3.700    4.81   14.86   -1.33   0.000   0.200   0.000    0.00
   3.750    4.85   16.99   -0.72   0.000   0.200   0.000    0.00
   3.800    5.02   16.13   -0.45   0.000   0.200   0.000    0.00
   3.850    4.72   10.89   -0.48   0.000   0.200   0.000    0.00
   3.900    4.82    6.86    0.30   0.000   0.200   0.000    0.00
   3.950    4.75   -1.48    0.37   0.000   0.200   0.000    0.00
   4.000    4.82   -3.41    0.21   0.000   0.200   0.000    0.00
   4.050    4.86   -4.10    0.06   0.000   0.200   0.000    0.00
   4.100    4.88   -8.96   -0.27   0.000   0.200   0.000    0.00
   4.150    5.26   -9.33    0.12   0.000   0.200   0.000    0.00
   4.200    5.59   -0.56    0.40   0.000   0.200   0.000    0.00
   4.250    6.33   -6.29    0.28   0.000   0.200   0.000    0.00
   4.300    6.45   -8.82    0.96   0.000   0.200   0.000    0.00
   4.350    6.38   -4.38    1.06   0.000   0.200   0.000    0.00
   4.400    5.77   -7.98    0.90   0.000   0.200   0.000    0.00
   4.450    5.10   -8.52    0.81   0.000   0.200   0.000    0.00
   4.500    5.17   -7.74    0.72   0.000   0.200   0.000    0.00
   4.550    5.43    2.88    0.83   0.000   0.200   0.000    0.00
   4.600    5.44    2.96    0.48   0.000   0.200   0.000    0.00
   4.650    5.44   -4.27    0.33   0.000   0.200   0.000    0.00
   4.700    5.62   -3.45   -0.28   0.000   0.200   0.000    0.00
   4.750    6.32   -3.19    0.07   0.000   0.200   0.000    0.00
   4.800    6.29   -6.80   -0.17   0.000   0.200   0.000    0.00
   4.850    5.71   -8.40    0.04   0.000   0.200   0.000    0.00
   4.900    6.32   -9.47    0.19   0.000   0.200   0.000    0.00
   4.950    6.35   -7.60    0.64   0.000   0.200   0.000    0.00
   5.000    6.13   -6.42    0.58   0.000   0.200   0.000    0.00
   5.050    6.13   -3.98    0.57   0.000   0.200   0.000    0.00
   5.100    6.23   -4.19    0.39   0.000   0.200   0.000    0.00
   5.150    5.77   -7.24    0.13   0.000   0.200   0.000    0.00
   5.200    5.34   -0.48    0.58   0.000   0.200   0.000    0.00
   5.250    5.32    6.87   -0.25   0.000   0.200   0.000    0.00
   5.300    5.38    0.30   -0.36   0.000   0.200   0.000    0.00
   5.350    5.52    4.14   -0.07   0.000   0.200   0.000    0.00
   5.400    5.96    9.23    0.54   0.000   0.200   0.000    0.00
   5.450    5.93    4.97    0.79   0.000   0.200   0.000    0.00
   5.500    5.85    6.11    0.52   0.000   0.200   0.000    0.00
   5.550    5.79    9.12    0.48   0.000   0.200   0.000    0.00
   5.600    5.58    9.79    0.31   0.000   0.200   0.000    0.00
   5.650    5.29    8.82    0.50   0.000   0.200   0.000    0.00
   5.700    5.46    4.32    0.57   0.000   0.200   0.000    0.00
   5.750    5.36   -5.18    0.65   0.000   0.200   0.000    0.00
   5.800    5.78   -7.28    0.97   0.000   0.200   0.000    0.00
   5.850    5.73   -8.47    1.11   0.000   0.200   0.000    0.00
   5.900    5.08  -10.79    0.98   0.000   0.200   0.000    0.00
   5.950    5.14  -13.62    0.58   0.000   0.200   0.000    0.00
   6.000    4.83  -21.80    0.49   0.000   0.200   0.000    0.00
   6.050    4.48  -18.38    0.65   0.000   0.200   0.000    0.00
   6.100    4.69  -21.22    0.77   0.000   0.200   0.000    0.00
   6.150    4.84  -20.72    0.78   0.000   0.200   0.000    0.00
   6.200    4.53  -19.31    0.61   0.000   0.200   0.000    0.00
   6.250    4.25  -20.25    0.67   0.000   0.200   0.000    0.00
   6.300    4.31  -15.19   -0.03   0.000   0.200   0.000    0.00
   6.350    4.30  -21.28    0.33   0.000   0.200   0.000    0.00
   6.400    4.41  -24.96    0.21   0.000   0.200   0.000    0.00
   6.450    4.29  -18.81   -0.02   0.000   0.200   0.000    0.00
   6.500    4.21  -24.14    0.10   0.000   0.200   0.000    0.00
   6.550    4.14  -21.69   -0.18   0.000   0.200   0.000    0.00
   6.600    3.70  -13.28   -0.35   0.000   0.200   0.000    0.00
   6.650    3.96  -12.66   -0.59   0.000   0.200   0.000    0.00
   6.700    4.31  -12.31   -0.69   0.000   0.200   0.000    0.00
   6.750    4.34  -12.09   -1.08   0.000   0.200   0.000    0.00
   6.800    4.29  -11.33   -1.55   0.000   0.200   0.000    0.00
   6.850    4.63  -10.02   -1.95   0.000   0.200   0.000    0.00
   6.900    4.84  -12.71   -1.80   0.000   0.200   0.000    0.00
   6.950    4.45  -15.56   -1.46   0.000   0.200   0.000    0.00
   7.000    4.91   -6.53   -2.03   0.000   0.200   0.000    0.00
   7.050    4.51  -16.37   -2.19   0.000   0.200   0.000    0.00
   7.100    4.14  -18.03   -1.96   0.000   0.200   0.000    0.00
   7.150    4.51  -19.70   -1.77   0.000   0.200   0.000    0.00
   7.200    4.51  -23.90   -2.07   0.000   0.200   0.000    0.00
   7.250    4.59  -27.63   -1.98   0.000   0.200   0.000    0.00
   7.300    4.97  -29.95   -1.54   0.000   0.200   0.000    0.00
   7.350    4.42  -27.24   -1.66   0.000   0.200   0.000    0.00
   7.400    4.68  -33.75   -1.33   0.000   0.200   0.000    0.00
   7.450    4.33  -36.11   -2.16   0.000   0.200   0.000    0.00
   7.500    5.05  -29.50   -2.19   0.000   0.200   0.000    0.00
   7.550    4.75  -23.97   -2.17   0.000   0.200   0.000    0.00
   7.600    4.98  -21.35   -1.35   0.000   0.200   0.000    0.00
   7.650    5.06  -21.48   -1.39   0.000   0.200   0.000    0.00
   7.700    4.55  -16.71   -1.11   0.000   0.200   0.000    0.00
   7.750    4.44  -16.24   -0.91   0.000   0.200   0.000    0.00
   7.800    4.42  -12.55   -0.97   0.000   0.200   0.000    0.00
   7.850    4.64   -8.39   -1.38   0.000   0.200   0.000    0.00
   7.900    4.50  -12.13   -1.18   0.000   0.200   0.000    0.00
   7.950    4.06   -5.56   -1.74   0.000   0.200   0.000    0.00
   8.000    4.20   -8.11   -1.61   0.000   0.200   0.000    0.00
   8.050    4.55   -6.13   -1.32   0.000   0.200   0.000    0.00
   8.100    4.27   -8.74   -1.64   0.000   0.200   0.000    0.00
   8.150    4.45   -5.45   -1.46   0.000   0.200   0.000    0.00
   8.200    4.22    6.19   -1.54   0.000   0.200   0.000    0.00
   8.250    4.17    8.37   -0.43   0.000   0.200   0.000    0.00
   8.300    4.36    7.38    0.00   0.000   0.200   0.000    0.00
   8.350    4.56    5.46    0.02   0.000   0.200   0.000    0.00
   8.400    5.00    4.54   -0.29   0.000   0.200   0.000    0.00
   8.450    5.56    0.42   -0.48   0.000   0.200   0.000    0.00
   8.500    5.59    5.01   -0.79   0.000   0.200   0.000    0.00
   8.550    5.49    2.07   -1.39   0.000   0.200   0.000    0.00
   8.600    5.95    2.24   -1.27   0.000   0.200   0.000    0.00
   8.650    6.00    5.50   -1.43   0.000   0.200   0.000    0.00
   8.700    5.86    8.92   -0.82   0.000   0.200   0.000    0.00
   8.750    5.17    7.37   -0.48   0.000   0.200   0.000    0.00
   8.800    5.21    3.76   -0.45   0.000   0.200   0.000    0.00
   8.850    5.74    1.37   -1.23   0.000   0.200   0.000    0.00
   8.900    5.81   -0.20   -1.23   0.000   0.200   0.000    0.00
   8.950    5.78    1.53   -0.96   0.000   0.200   0.000    0.00
   9.000    6.18    0.85   -1.06   0.000   0.200   0.000    0.00
   9.050    6.03    3.40   -0.78   0.000   0.200   0.000    0.00
   9.100    5.95    8.36   -0.48   0.000   0.200   0.000    0.00
   9.150    5.71   10.43   -0.03   0.000   0.200   0.000    0.00
   9.200    5.91    9.43   -0.10   0.000   0.200   0.000    0.00
   9.250    6.17   10.42   -0.56   0.000   0.200   0.000    0.00
   9.300    6.30    6.82   -0.45   0.000   0.200   0.000    0.00
   9.350    6.21    3.48   -0.28   0.000   0.200   0.000    0.00
   9.400    6.48    4.22   -0.58   0.000   0.200   0.000    0.00
   9.450    6.84    6.76   -0.59   0.000   0.200   0.000    0.00
   9.500    7.30    7.19   -1.46   0.000   0.200   0.000    0.00
   9.550    7.21   10.63   -2.65   0.000   0.200   0.000    0.00
   9.600    7.00    7.54   -2.29   0.000   0.200   0.000    0.00
   9.650    7.20    3.10   -2.07   0.000   0.200   0.000    0.00
   9.700    7.58    4.40   -2.26   0.000   0.200   0.000    0.00
   9.750    7.27    4.44   -2.51   0.000   0.200   0.000    0.00
   9.800    6.52    1.03   -2.53   0.000   0.200   0.000    0.00
   9.850    6.36    4.85   -2.87   0.000   0.200   0.000    0.00
   9.900    5.86    6.05   -3.34   0.000   0.200   0.000    0.00
   9.950    5.95   10.50   -2.88   0.000   0.200   0.000    0.00
  10.000    5.49    7.24   -2.54   0.000   0.200   0.000    0.00
  10.050    5.74    8.41   -2.29   0.000   0.200   0.000    0.00
  10.100    5.74    3.83   -1.84   0.000   0.200   0.000    0.00
  10.150    5.76    2.26   -1.89   0.000   0.200   0.000    0.00
  10.200    5.96    2.78   -2.13   0.000   0.200   0.000    0.00
  10.250    5.74    9.31   -1.69   0.000   0.200   0.000    0.00
  10.300    5.69   13.55   -1.75   0.000   0.200   0.000    0.00
  10.350    5.40    6.81   -2.70   0.000   0.200   0.000    0.00
  10.400    5.05    1.10   -1.69   0.000   0.200   0.000    0.00
  10.450    5.12   -6.80   -1.72   0.000   0.200   0.000    0.00
  10.500    5.02  -12.15   -1.80   0.000   0.200   0.000    0.00
  10.550    5.70   -8.11   -2.25   0.000   0.200   0.000    0.00
  10.600    6.67   -2.18   -2.30   0.000   0.200   0.000    0.00
  10.650    7.03   -1.13   -2.50   0.000   0.200   0.000    0.00
  10.700    6.54   -1.84   -2.33   0.000   0.200   0.000    0.00
  10.750    6.23    0.57   -2.51   0.000   0.200   0.000    0.00
  10.800    6.55    5.08   -2.89   0.000   0.200   0.000    0.00
  10.850    6.86    5.54   -2.29   0.000   0.200   0.000    0.00
  10.900    6.71    4.11   -1.81   0.000   0.200   0.000    0.00
  10.950    6.64    6.34   -2.09   0.000   0.200   0.000    0.00
  11.000    6.84    6.39   -2.12   0.000   0.200   0.000    0.00
  11.050    6.34    3.46   -2.41   0.000   0.200   0.000    0.00
  11.100    6.47   -0.11   -2.44   0.000   0.200   0.000    0.00
  11.150    6.25   -0.89   -2.14   0.000   0.200   0.000    0.00
  11.200    6.39   -2.64   -2.32   0.000   0.200   0.000    0.00
  11.250    6.09   -0.04   -2.11   0.000   0.200   0.000    0.00
  11.300    6.03   -0.80   -1.85   0.000   0.200   0.000    0.00
  11.350    6.61    2.34   -2.21   0.000   0.200   0.000    0.00
  11.400    6.34    1.44   -1.23   0.000   0.200   0.000    0.00
  11.450    6.26    1.37   -1.38   0.000   0.200   0.000    0.00
  11.500    6.58    5.33   -1.51   0.000   0.200   0.000    0.00
  11.550    6.51    7.07   -1.44   0.000   0.200   0.000    0.00
  11.600    6.38    2.07   -1.66   0.000   0.200   0.000    0.00
  11.650    6.71    0.14   -1.66   0.000   0.200   0.000    0.00
  11.700    6.70   -7.39   -1.85   0.000   0.200   0.000    0.00
  11.750    6.75   -6.03   -1.87   0.000   0.200   0.000    0.00
  11.800    6.65   -6.32   -2.48   0.000   0.200   0.000    0.00
  11.850    6.57   -6.11   -3.19   0.000   0.200   0.000    0.00
  11.900    6.20   -3.76   -2.84   0.000   0.200   0.000    0.00
  11.950    5.89    1.70   -2.65   0.000   0.200   0.000    0.00
  12.000    6.52   -0.01   -2.59   0.000   0.200   0.000    0.00
  12.050    6.66    2.37   -2.58   0.000   0.200   0.000    0.00
  12.100    6.75    5.91   -3.22   0.000   0.200   0.000    0.00
  12.150    6.88    6.12   -3.13   0.000   0.200   0.000    0.00
  12.200    6.75    3.96   -3.19   0.000   0.200   0.000    0.00
  12.250    7.05    3.97   -2.96   0.000   0.200   0.000    0.00
  12.300    7.11   10.03   -2.51   0.000   0.200   0.000    0.00
  12.350    6.87    9.75   -1.90   0.000   0.200   0.000    0.00
  12.400    7.14   10.50   -1.50   0.000   0.200   0.000    0.00
  12.450    7.10    8.59   -1.22   0.000   0.200   0.000    0.00
  12.500    7.02    8.43   -1.37   0.000   0.200   0.000    0.00
  12.550    6.70    4.61   -1.45   0.000   0.200   0.000    0.00
  12.600    6.82    4.36   -1.56   0.000   0.200   0.000    0.00
  12.650    7.09    1.07   -1.43   0.000   0.200   0.000    0.00
  12.700    6.97    2.04   -1.44   0.000   0.200   0.000    0.00
  12.750    6.80    3.87   -1.71   0.000   0.200   0.000    0.00
  12.800    6.97    4.48   -1.93   0.000   0.200   0.000    0.00
  12.850    6.80    0.41   -1.92   0.000   0.200   0.000    0.00
  12.900    6.55   -5.27   -3.11   0.000   0.200   0.000    0.00
  12.950    6.96   -5.65   -2.87   0.000   0.200   0.000    0.00
  13.000    6.98   -6.16   -2.97   0.000   0.200   0.000    0.00
  13.050    6.64   -3.73   -3.19   0.000   0.200   0.000    0.00
  13.100    6.46    0.20   -3.23   0.000   0.200   0.000    0.00
  13.150    6.34    0.16   -2.43   0.000   0.200   0.000    0.00
  13.200    5.90   -0.99   -2.47   0.000   0.200   0.000    0.00
  13.250    6.03   -0.19   -2.63   0.000   0.200   0.000    0.00
  13.300    5.59    4.45   -2.41   0.000   0.200   0.000    0.00
  13.350    4.96    3.94   -2.77   0.000   0.200   0.000    0.00
  13.400    5.47    9.44   -2.74   0.000   0.200   0.000    0.00
  13.450    5.47   10.44   -2.30   0.000   0.200   0.000    0.00
  13.500    5.59   11.94   -1.73   0.000   0.200   0.000    0.00
  13.550    6.07   11.63   -1.38   0.000   0.200   0.000    0.00
  13.600    5.91    9.94   -1.15   0.000   0.200   0.000    0.00
  13.650    6.05   11.66   -1.31   0.000   0.200   0.000    0.00
  13.700    6.39    7.50   -1.82   0.000   0.200   0.000    0.00
  13.750    6.81    9.17   -1.72   0.000   0.200   0.000    0.00
  13.800    6.69   12.47   -1.18   0.000   0.200   0.000    0.00
  13.850    6.67    8.73   -1.41   0.000   0.200   0.000    0.00
  13.900    6.73    9.71   -1.57   0.000   0.200   0.000    0.00
  13.950    6.77    8.28   -1.66   0.000   0.200   0.000    0.00
  14.000    6.60   11.10   -1.93   0.000   0.200   0.000    0.00
  14.050    6.41   10.03   -2.03   0.000   0.200   0.000    0.00
  14.100    6.41    5.75   -1.94   0.000   0.200   0.000    0.00
  14.150    6.25    1.81   -1.94   0.000   0.200   0.000    0.00
  14.200    6.19    4.94   -2.17   0.000   0.200   0.000    0.00
  14.250    6.05    2.70   -1.60   0.000   0.200   0.000    0.00
  14.300    5.81    3.43   -1.38   0.000   0.200   0.000    0.00
  14.350    5.74   10.56   -1.06   0.000   0.200   0.000    0.00
  14.400    5.74   10.45   -1.34   0.000   0.200   0.000    0.00
  14.450    6.04   14.57   -1.28   0.000   0.200   0.000    0.00
  14.500    6.22   13.10   -1.42   0.000   0.200   0.000    0.00
  14.550    6.23   13.05   -1.45   0.000   0.200   0.000    0.00
  14.600    6.35   11.95   -1.22   0.000   0.200   0.000    0.00
  14.650    6.25   10.92   -1.35   0.000   0.200   0.000    0.00
  14.700    6.34   14.60   -1.82   0.000   0.200   0.000    0.00
  14.750    6.39   16.72   -0.98   0.000   0.200   0.000    0.00
  14.800    6.73   15.40   -0.76   0.000   0.200   0.000    0.00
  14.850    6.64   14.84   -0.54   0.000   0.200   0.000    0.00
  14.900    6.00   14.53   -1.25   0.000   0.200   0.000    0.00
  14.950    6.42   13.70   -1.73   0.000   0.200   0.000    0.00
  15.000    5.96   10.54   -1.32   0.000   0.200   0.000    0.00
  15.050    6.15   15.74   -1.35   0.000   0.200   0.000    0.00
  15.100    6.25   15.55   -2.41   0.000   0.200   0.000    0.00
  15.150    6.09   23.44   -2.37   0.000   0.200   0.000    0.00
  15.200    5.92   21.73   -2.39   0.000   0.200   0.000    0.00
  15.250    6.37   25.52   -2.87   0.000   0.200   0.000    0.00
  15.300    6.54   27.16   -2.87   0.000   0.200   0.000    0.00
  15.350    6.30   27.78   -2.22   0.000   0.200   0.000    0.00
  15.400    6.43   25.24   -2.01   0.000   0.200   0.000    0.00
  15.450    6.66   24.03   -1.34   0.000   0.200   0.000    0.00
  15.500    6.47   21.77   -1.61   0.000   0.200   0.000    0.00
  15.550    6.37   20.58   -2.23   0.000   0.200   0.000    0.00
  15.600    6.27   18.50   -2.46   0.000   0.200   0.000    0.00
  15.650    5.74   20.65   -2.81   0.000   0.200   0.000    0.00
  15.700    5.57   23.08   -2.78   0.000   0.200   0.000    0.00
  15.750    6.24   23.59   -2.82   0.000   0.200   0.000    0.00
  15.800    6.12   24.08   -2.49   0.000   0.200   0.000    0.00
  15.850    6.47   22.50   -2.51   0.000   0.200   0.000    0.00
  15.900    5.97   20.97   -2.70   0.000   0.200   0.000    0.00
  15.950    6.37   13.67   -2.76   0.000   0.200   0.000    0.00
  16.000    6.63   10.11   -2.71   0.000   0.200   0.000    0.00
  16.050    6.52   10.30   -3.13   0.000   0.200   0.000    0.00
  16.100    6.63   12.25   -2.81   0.000   0.200   0.000    0.00
  16.150    6.40    3.52   -2.85   0.000   0.200   0.000    0.00
  16.200    6.38    1.38   -2.76   0.000   0.200   0.000    0.00
  16.250    6.58    1.70   -3.38   0.000   0.200   0.000    0.00
  16.300    6.22    1.54   -3.47   0.000   0.200   0.000    0.00
  16.350    6.55    7.49   -3.30   0.000   0.200   0.000    0.00
  16.400    6.92    7.71   -3.41   0.000   0.200   0.000    0.00
  16.450    6.72    6.57   -3.37   0.000   0.200   0.000    0.00
  16.500    7.09    6.34   -3.22   0.000   0.200   0.000    0.00
  16.550    7.46    5.82   -3.00   0.000   0.200   0.000    0.00
  16.600    7.63    4.62   -2.93   0.000   0.200   0.000    0.00
  16.650    7.31    0.92   -2.86   0.000   0.200   0.000    0.00
  16.700    7.30    2.72   -3.01   0.000   0.200   0.000    0.00
  16.750    7.80    6.79   -3.25   0.000   0.200   0.000    0.00
  16.800    7.91    5.11   -3.36   0.000   0.200   0.000    0.00
  16.850    7.37    4.27   -2.89   0.000   0.200   0.000    0.00
  16.900    7.55    7.26   -2.51   0.000   0.200   0.000    0.00
  16.950    7.76    3.87   -2.31   0.000   0.200   0.000    0.00
  17.000    8.17    3.41   -2.24   0.000   0.200   0.000    0.00
  17.050    7.65    6.10   -1.00   0.000   0.200   0.000    0.00
  17.100    7.71    2.37   -1.17   0.000   0.200   0.000    0.00
  17.150    7.25    1.55   -1.30   0.000   0.200   0.000    0.00
  17.200    7.34    1.22   -0.43   0.000   0.200   0.000    0.00
  17.250    6.59    2.65   -0.89   0.000   0.200   0.000    0.00
  17.300    6.45    6.42   -1.06   0.000   0.200   0.000    0.00
  17.350    6.47    3.90   -0.31   0.000   0.200   0.000    0.00
  17.400    6.60    6.22    0.00   0.000   0.200   0.000    0.00
  17.450    6.74    8.23    0.21   0.000   0.200   0.000    0.00
  17.500    6.53    9.39    0.12   0.000   0.200   0.000    0.00
  17.550    6.68   10.17    0.25   0.000   0.200   0.000    0.00
  17.600    7.52   14.00    0.17   0.000   0.200   0.000    0.00
  17.650    7.52   12.25   -0.10   0.000   0.200   0.000    0.00
  17.700    7.62    9.83   -0.13   0.000   0.200   0.000    0.00
  17.750    7.84   12.29   -0.32   0.000   0.200   0.000    0.00
  17.800    7.45   16.00   -0.29   0.000   0.200   0.000    0.00
  17.850    7.43   15.56   -0.49   0.000   0.200   0.000    0.00
  17.900    7.37   16.95   -0.70   0.000   0.200   0.000    0.00
  17.950    7.40   20.18   -0.24   0.000   0.200   0.000    0.00
  18.000    7.63   21.01   -0.09   0.000   0.200   0.000    0.00
  18.050    7.99   20.25   -0.49   0.000   0.200   0.000    0.00
  18.100    7.77   17.43   -0.08   0.000   0.200   0.000    0.00
  18.150    8.03   22.01    0.58   0.000   0.200   0.000    0.00
  18.200    8.26   22.05    0.36   0.000   0.200   0.000    0.00
  18.250    8.54   22.69    0.46   0.000   0.200   0.000    0.00
  18.300    8.35   20.13    0.61   0.000   0.200   0.000    0.00
  18.350    8.24   21.28    0.17   0.000   0.200   0.000    0.00
  18.400    8.21   23.76    0.01   0.000   0.200   0.000    0.00
  18.450    8.00   22.63    0.15   0.000   0.200   0.000    0.00
  18.500    8.31   21.80   -0.11   0.000   0.200   0.000    0.00
  18.550    8.10   21.80   -0.58   0.000   0.200   0.000    0.00
  18.600    8.45   22.63   -0.38   0.000   0.200   0.000    0.00
  18.650    7.97   20.31   -0.39   0.000   0.200   0.000    0.00
  18.700    7.91   17.87   -0.48   0.000   0.200   0.000    0.00
  18.750    7.37   19.86   -0.48   0.000   0.200   0.000    0.00
  18.800    7.08   19.04   -0.78   0.000   0.200   0.000    0.00
  18.850    7.29   16.59   -0.78   0.000   0.200   0.000    0.00
  18.900    7.55   16.16   -0.99   0.000   0.200   0.000    0.00
  18.950    7.85   14.84   -0.38   0.000   0.200   0.000    0.00
  19.000    7.98   10.62   -0.42   0.000   0.200   0.000    0.00
  19.050    7.42   10.79   -0.80   0.000   0.200   0.000    0.00
  19.100    7.55   12.88   -1.22   0.000   0.200   0.000    0.00
  19.150    7.60    7.64   -1.18   0.000   0.200   0.000    0.00
  19.200    8.54    7.87   -0.70   0.000   0.200   0.000    0.00
  19.250    8.60    8.04   -0.18   0.000   0.200   0.000    0.00
  19.300    8.23   10.43    0.13   0.000   0.200   0.000    0.00
  19.350    7.93    6.27   -0.33   0.000   0.200   0.000    0.00
  19.400    7.86    7.11   -0.15   0.000   0.200   0.000    0.00
  19.450    8.29    9.62   -0.21   0.000   0.200   0.000    0.00
  19.500    8.62   10.89   -0.02   0.000   0.200   0.000    0.00
  19.550    8.79   10.80   -0.01   0.000   0.200   0.000    0.00
  19.600    9.06    9.72   -0.11   0.000   0.200   0.000    0.00
  19.650    8.97    9.55    0.33   0.000   0.200   0.000    0.00
  19.700    8.71    9.90   -0.13   0.000   0.200   0.000    0.00
  19.750    8.74   11.07   -0.17   0.000   0.200   0.000    0.00
  19.800    9.00    8.89   -0.03   0.000   0.200   0.000    0.00
  19.850    9.66   11.50   -0.26   0.000   0.200   0.000    0.00
  19.900    9.70   11.89   -0.33   0.000   0.200   0.000    0.00
  19.950    9.89   11.83   -0.07   0.000   0.200   0.000    0.00
  20.000    9.76   15.07   -0.55   0.000   0.200   0.000    0.00
  20.050    9.65   18.78   -0.55   0.000   0.200   0.000    0.00
  20.100    9.45   19.14   -0.40   0.000   0.200   0.000    0.00
  20.150    9.69   18.03    0.10   0.000   0.200   0.000    0.00
  20.200   10.13   16.57   -0.13   0.000   0.200   0.000    0.00
  20.250    9.66   15.89    0.08   0.000   0.200   0.000    0.00
  20.300    9.87   16.63    0.19   0.000   0.200   0.000    0.00
  20.350    9.79   16.67   -0.12   0.000   0.200   0.000    0.00
  20.400   10.42   17.70   -0.05   0.000   0.200   0.000    0.00
  20.450   10.75   15.92   -0.35   0.000   0.200   0.000    0.00
  20.500   10.86   14.98    0.02   0.000   0.200   0.000    0.00
  20.550   11.00   12.14   -0.47   0.000   0.200   0.000    0.00
  20.600   11.10   12.42   -1.04   0.000   0.200   0.000    0.00
  20.650   11.45   13.04   -0.63   0.000   0.200   0.000    0.00
  20.700   11.33   12.27    0.03   0.000   0.200   0.000    0.00
  20.750   11.11   14.18    0.39   0.000   0.200   0.000    0.00
  20.800   10.38   10.82   -0.19   0.000   0.200   0.000    0.00
  20.850   10.06    8.09   -0.45   0.000   0.200   0.000    0.00
  20.900   10.73    9.71   -0.47   0.000   0.200   0.000    0.00
  20.950   10.60    8.10   -0.20   0.000   0.200   0.000    0.00
  21.000   10.57   11.33    0.19   0.000   0.200   0.000    0.00
  21.050   10.59   12.94   -0.14   0.000   0.200   0.000    0.00
  21.100   10.80   10.90   -0.31   0.000   0.200   0.000    0.00
  21.150   10.47    9.85   -0.87   0.000   0.200   0.000    0.00
  21.200   10.45    9.39   -0.82   0.000   0.200   0.000    0.00
  21.250   10.93    9.31   -0.51   0.000   0.200   0.000    0.00
  21.300   10.85    8.26   -0.02   0.000   0.200   0.000    0.00
  21.350   10.50    8.74   -0.38   0.000   0.200   0.000    0.00
  21.400   10.52    6.45   -0.46   0.000   0.200   0.000    0.00
  21.450   10.31    5.43   -0.18   0.000   0.200   0.000    0.00
  21.500   10.38    6.51   -0.18   0.000   0.200   0.000    0.00
  21.550   10.34    8.21   -0.15   0.000   0.200   0.000    0.00
  21.600   10.40    8.67    0.54   0.000   0.200   0.000    0.00
  21.650   10.28   11.46    0.68   0.000   0.200   0.000    0.00
  21.700   10.04   13.24    0.65   0.000   0.200   0.000    0.00
  21.750   10.26   17.20    0.53   0.000   0.200   0.000    0.00
  21.800   10.90   21.11    0.71   0.000   0.200   0.000    0.00
  21.850   10.95   18.94    0.76   0.000   0.200   0.000    0.00
  21.900   10.02   18.11    0.86   0.000   0.200   0.000    0.00
  21.950   10.46   19.67    1.02   0.000   0.200   0.000    0.00
  22.000   10.39   19.30    1.27   0.000   0.200   0.000    0.00
  22.050   10.54   18.38    1.46   0.000   0.200   0.000    0.00
  22.100   10.75   17.50    0.95   0.000   0.200   0.000    0.00
  22.150   10.55   17.50    0.17   0.000   0.200   0.000    0.00
  22.200   10.48   16.17    0.35   0.000   0.200   0.000    0.00
  22.250   10.32   16.93    0.60   0.000   0.200   0.000    0.00
  22.300   10.18   16.50    0.17   0.000   0.200   0.000    0.00
  22.350    9.92   17.62    0.16   0.000   0.200   0.000    0.00