! This hub-height wind-speed file was generated by TurbSim (v1.06.00, 21-Sep-2012) on 03-Feb-2018 at 23:31:34.
!
! The requested statistics for this data were:
!    Mean Total Wind Speed =   15.000 m/s
!    Turbulence Intensity  =   15.727%
!
!   Time  HorSpd  WndDir  VerSpd  HorShr  VerShr  LnVShr  GstSpd
!  (sec)   (m/s)   (deg)   (m/s)     (-)     (-)     (-)   (m/s)
   0.000   16.44    4.69    1.37   0.000   0.200   0.000    0.00
   0.050   17.19    7.22    1.44   0.000   0.200   0.000    0.00
   0.100   17.29    7.41    0.73   0.000   0.200   0.000    0.00
   0.150   17.37    6.45    0.38   0.000   0.200   0.000    0.00
   0.200   16.99    8.14    0.24   0.000   0.200   0.000    0.00
   0.250   16.74    8.14    0.01   0.000   0.200   0.000    0.00
   0.300   16.55   10.18    0.65   0.000   0.200   0.000    0.00
   0.350   15.80   11.00    0.59   0.000   0.200   0.000    0.00
   0.400   16.60    9.71    0.79   0.000   0.200   0.000    0.00
   0.450   16.60   12.86    0.47   0.000   0.200   0.000    0.00
   0.500   16.72   11.96   -0.31   0.000   0.200   0.000    0.00
   0.550   16.60    9.23   -0.53   0.000   0.200   0.000    0.00
   0.600   16.85    8.26   -0.18   0.000   0.200   0.000    0.00
   0.650   16.81    8.47    0.04   0.000   0.200   0.000    0.00
   0.700   16.55    8.83    0.03   0.000   0.200   0.000    0.00
   0.750   16.69    8.58    0.16   0.000   0.200   0.000    0.00
   0.800   16.00    8.87   -0.44   0.000   0.200   0.000    0.00
   0.850   16.06    5.16   -0.03   0.000   0.200   0.000    0.00
   0.900   15.86    8.10   -0.27   0.000   0.200   0.000    0.00
   0.950   15.27    9.08    0.43   0.000   0.200   0.000    0.00
   1.000   15.31    8.40    0.78   0.000   0.200   0.000    0.00
   1.050   15.71    5.53    0.36   0.000   0.200   0.000    0.00
   1.100   16.37    4.99    0.68   0.000   0.200   0.000    0.00
   1.150   16.91    7.39    0.62   0.000   0.200   0.000    0.00
   1.200   16.66    6.63    0.92   0.000   0.200   0.000    0.00
   1.250   16.79    3.73    0.96   0.000   0.200   0.000    0.00
   1.300   17.12    3.20    0.94   0.000   0.200   0.000    0.00
   1.350   17.15    5.25    1.29   0.000   0.200   0.000    0.00
   1.400   18.15    4.30    0.78   0.000   0.200   0.000    0.00
   1.450   17.62    4.55    0.16   0.000   0.200   0.000    0.00
   1.500   17.36    4.31   -0.12   0.000   0.200   0.000    0.00
   1.550   17.69    4.94   -0.26   0.000   0.200   0.000    0.00
   1.600   17.73    4.24   -1.04   0.000   0.200   0.000    0.00
   1.650   17.93    4.93   -1.58   0.000   0.200   0.000    0.00
   1.700   18.28    3.52   -1.36   0.000   0.200   0.000    0.00
   1.750   17.71    4.11   -1.44   0.000   0.200   0.000    0.00
   1.800   18.35    4.24   -0.83   0.000   0.200   0.000    0.00
   1.850   18.65    4.23   -0.29   0.000   0.200   0.000    0.00
   1.900   18.41    2.21    0.09   0.000   0.200   0.000    0.00
   1.950   18.28    0.23   -0.09   0.000   0.200   0.000    0.00
   2.000   18.15   -1.36   -0.48   0.000   0.200   0.000    0.00
   2.050   18.01   -2.11   -0.52   0.000   0.200   0.000    0.00
   2.100   18.19   -2.52   -0.86   0.000   0.200   0.000    0.00
   2.150   18.42   -0.75   -0.74   0.000   0.200   0.000    0.00
   2.200   18.86   -0.22   -0.60   0.000   0.200   0.000    0.00
   2.250   18.74    1.70   -1.04   0.000   0.200   0.000    0.00
   2.300   18.07    6.41   -0.98   0.000   0.200   0.000    0.00
   2.350   18.82    3.09   -0.65   0.000   0.200   0.000    0.00
   2.400   19.35    3.66   -1.02   0.000   0.200   0.000    0.00
   2.450   19.69    4.76   -1.64   0.000   0.200   0.000    0.00
   2.500   19.46    5.61   -1.82   0.000   0.200   0.000    0.00
   2.550   19.39    5.45   -1.45   0.000   0.200   0.000    0.00
   2.600   19.54    3.32   -0.86   0.000   0.200   0.000    0.00
   2.650   19.65    4.10   -0.90   0.000   0.200   0.000    0.00
   2.700   20.39    4.05   -0.63   0.000   0.200   0.000    0.00
   2.750   20.73    2.18   -0.43   0.000   0.200   0.000    0.00
   2.800   20.53    0.98   -0.62   0.000   0.200   0.000    0.00
   2.850   19.92    1.18   -1.13   0.000   0.200   0.000    0.00
   2.900   19.76    2.42   -0.31   0.000   0.200   0.000    0.00
   2.950   20.23    1.36    0.11   0.000   0.200   0.000    0.00
   3.000   19.89    1.38    0.47   0.000   0.200   0.000    0.00
   3.050   19.44    0.36    0.42   0.000   0.200   0.000    0.00
   3.100   19.10    0.91    0.37   0.000   0.200   0.000    0.00
   3.150   18.67    2.56   -0.20   0.000   0.200   0.000    0.00
   3.200   18.24    2.27   -0.32   0.000   0.200   0.000    0.00
   3.250   18.08    3.34    0.00   0.000   0.200   0.000    0.00
   3.300   18.17    2.66   -0.83   0.000   0.200   0.000    0.00
   3.350   18.35    0.54   -1.14   0.000   0.200   0.000    0.00
   3.400   18.12    0.47   -1.51   0.000   0.200   0.000    0.00
   3.450   17.89    0.95   -1.42   0.000   0.200   0.000    0.00
   3.500   18.11    1.96   -0.99   0.000   0.200   0.000    0.00
   3.550   18.21    1.66   -1.18   0.000   0.200   0.000    0.00
   3.600   18.24   -0.42   -1.07   0.000   0.200   0.000    0.00
   3.650   18.28   -0.03   -1.14   0.000   0.200   0.000    0.00
   3.700   19.44    1.08   -1.47   0.000   0.200   0.000    0.00
   3.750   19.36    1.39   -0.61   0.000   0.200   0.000    0.00
   3.800   19.02    0.12   -0.04   0.000   0.200   0.000    0.00
   3.850   18.67   -0.48   -0.15   0.000   0.200   0.000    0.00
   3.900   18.34    3.68    0.10   0.000   0.200   0.000    0.00
   3.950   18.47    2.40    0.70   0.000   0.200   0.000    0.00
   4.000   18.04    2.50   -0.34   0.000   0.200   0.000    0.00
   4.050   18.26    4.32   -1.07   0.000   0.200   0.000    0.00
   4.100   18.07    4.75   -0.88   0.000   0.200   0.000    0.00
   4.150   18.43    4.79   -1.13   0.000   0.200   0.000    0.00
   4.200   18.14    3.68   -1.19   0.000   0.200   0.000    0.00
   4.250   18.05    5.30   -0.96   0.000   0.200   0.000    0.00
   4.300   17.87    7.62   -0.68   0.000   0.200   0.000    0.00
   4.350   18.34    6.49   -0.47   0.000   0.200   0.000    0.00
   4.400   18.35    6.50    0.28   0.000   0.200   0.000    0.00
   4.450   17.56    8.10    1.09   0.000   0.200   0.000    0.00
   4.500   16.99    6.84    1.32   0.000   0.200   0.000    0.00
   4.550   16.82    5.05    1.60   0.000   0.200   0.000    0.00
   4.600   16.83    5.04    1.94   0.000   0.200   0.000    0.00
   4.650   17.08    5.00    0.92   0.000   0.200   0.000    0.00
   4.700   16.81    5.53    1.14   0.000   0.200   0.000    0.00
   4.750   16.10    7.77    1.34   0.000   0.200   0.000    0.00
   4.800   16.56    9.89    1.28   0.000   0.200   0.000    0.00
   4.850   16.09   10.18    1.11   0.000   0.200   0.000    0.00
   4.900   16.13    6.79    0.65   0.000   0.200   0.000    0.00
   4.950   16.01    6.23    0.65   0.000   0.200   0.000    0.00
   5.000   15.81    6.41    1.08   0.000   0.200   0.000    0.00
   5.050   16.64    4.45    1.10   0.000   0.200   0.000    0.00
   5.100   16.44    1.72    0.77   0.000   0.200   0.000    0.00
   5.150   16.52    0.82    0.64   0.000   0.200   0.000    0.00
   5.200   17.25   -3.04    0.06   0.000   0.200   0.000    0.00
   5.250   17.22   -2.00    0.96   0.000   0.200   0.000    0.00
   5.300   16.77   -0.52    0.87   0.000   0.200   0.000    0.00
   5.350   17.52   -1.48    0.83   0.000   0.200   0.000    0.00
   5.400   16.53   -1.12    1.25   0.000   0.200   0.000    0.00
   5.450   16.29   -2.11    1.83   0.000   0.200   0.000    0.00
   5.500   16.71   -2.03    1.76   0.000   0.200   0.000    0.00
   5.550   16.99   -3.06    1.09   0.000   0.200   0.000    0.00
   5.600   17.27   -2.12    0.98   0.000   0.200   0.000    0.00
   5.650   17.77    0.57    1.02   0.000   0.200   0.000    0.00
   5.700   17.38    4.13    0.59   0.000   0.200   0.000    0.00
   5.750   17.69    2.99    0.26   0.000   0.200   0.000    0.00
   5.800   17.17    1.37    0.62   0.000   0.200   0.000    0.00
   5.850   16.99    3.19    0.73   0.000   0.200   0.000    0.00
   5.900   17.49    6.79    0.54   0.000   0.200   0.000    0.00
   5.950   16.86    6.78    0.75   0.000   0.200   0.000    0.00
   6.000   16.83    5.14    1.35   0.000   0.200   0.000    0.00
   6.050   16.77    5.12    0.99   0.000   0.200   0.000    0.00
   6.100   16.87    6.03    0.49   0.000   0.200   0.000    0.00
   6.150   16.88    6.32    0.34   0.000   0.200   0.000    0.00
   6.200   16.53    6.31    0.00   0.000   0.200   0.000    0.00
   6.250   16.48    5.65    0.10   0.000   0.200   0.000    0.00
   6.300   16.86    4.87   -0.39   0.000   0.200   0.000    0.00
   6.350   15.82    3.94   -0.30   0.000   0.200   0.000    0.00
   6.400   16.06    2.13   -0.36   0.000   0.200   0.000    0.00
   6.450   16.27    1.81    0.00   0.000   0.200   0.000    0.00
   6.500   15.74    3.88   -0.38   0.000   0.200   0.000    0.00
   6.550   15.48    5.55   -0.66   0.000   0.200   0.000    0.00
   6.600   16.05    7.88    0.02   0.000   0.200   0.000    0.00
   6.650   16.85    6.30    0.19   0.000   0.200   0.000    0.00
   6.700   16.80    7.59    0.24   0.000   0.200   0.000    0.00
   6.750   17.25    9.08    0.04   0.000   0.200   0.000    0.00
   6.800   16.91    9.87    0.14   0.000   0.200   0.000    0.00
   6.850   17.23   10.05    0.53   0.000   0.200   0.000    0.00
   6.900   17.19    9.75    0.60   0.000   0.200   0.000    0.00
   6.950   16.81    8.17    0.57   0.000   0.200   0.000    0.00
   7.000   16.76    7.30    0.20   0.000   0.200   0.000    0.00
   7.050   16.55    8.00    0.09   0.000   0.200   0.000    0.00
   7.100   16.70    7.98    0.59   0.000   0.200   0.000    0.00
   7.150   16.36    7.99    0.13   0.000   0.200   0.000    0.00
   7.200   16.32    7.31   -0.28   0.000   0.200   0.000    0.00
   7.250   16.49    9.36   -0.61   0.000   0.200   0.000    0.00
   7.300   16.14   10.41   -0.95   0.000   0.200   0.000    0.00
   7.350   15.90   11.07   -1.47   0.000   0.200   0.000    0.00
   7.400   15.92   10.93   -1.18   0.000   0.200   0.000    0.00
   7.450   16.62    7.36   -0.84   0.000   0.200   0.000    0.00
   7.500   17.09    5.96   -0.52   0.000   0.200   0.000    0.00
   7.550   16.62    4.27   -0.82   0.000   0.200   0.000    0.00
   7.600   16.50    4.92    0.05   0.000   0.200   0.000    0.00
   7.650   16.47    6.51   -0.14   0.000   0.200   0.000    0.00
   7.700   15.70    8.38   -0.52   0.000   0.200   0.000    0.00
   7.750   15.76    8.79   -0.10   0.000   0.200   0.000    0.00
   7.800   15.64    7.73    0.05   0.000   0.200   0.000    0.00
   7.850   16.10    5.87    0.07   0.000   0.200   0.000    0.00
   7.900   15.90    7.88   -0.16   0.000   0.200   0.000    0.00
   7.950   15.77    7.16   -0.60   0.000   0.200   0.000    0.00
   8.000   16.01    6.03   -0.97   0.000   0.200   0.000    0.00
   8.050   15.78    4.51   -0.64   0.000   0.200   0.000    0.00
   8.100   16.26    5.33   -0.55   0.000   0.200   0.000    0.00
   8.150   16.42    4.62   -0.20   0.000   0.200   0.000    0.00
   8.200   16.57    4.47    0.30   0.000   0.200   0.000    0.00
   8.250   16.44    5.01    0.05   0.000   0.200   0.000    0.00
   8.300   16.15    3.70   -0.01   0.000   0.200   0.000    0.00
   8.350   16.25    3.37    0.22   0.000   0.200   0.000    0.00
   8.400   16.11    4.98   -0.02   0.000   0.200   0.000    0.00
   8.450   16.23    2.68    0.07   0.000   0.200   0.000    0.00
   8.500   15.94    2.88   -0.06   0.000   0.200   0.000    0.00
   8.550   16.03    3.43    0.18   0.000   0.200   0.000    0.00
   8.600   16.50    5.14    0.25   0.000   0.200   0.000    0.00
   8.650   16.87    5.82    0.08   0.000   0.200   0.000    0.00
   8.700   16.81    7.62    0.74   0.000   0.200   0.000    0.00
   8.750   16.59    5.06    1.00   0.000   0.200   0.000    0.00
   8.800   16.56    1.54    1.77   0.000   0.200   0.000    0.00
   8.850   16.55    1.91    1.51   0.000   0.200   0.000    0.00
   8.900   16.12    2.53    0.79   0.000   0.200   0.000    0.00
   8.950   15.97    5.14    0.34   0.000   0.200   0.000    0.00
   9.000   15.85    6.39    0.87   0.000   0.200   0.000    0.00
   9.050   15.62    4.05    1.10   0.000   0.200   0.000    0.00
   9.100   15.37    3.51    1.52   0.000   0.200   0.000    0.00
   9.150   15.47    6.36    0.28   0.000   0.200   0.000    0.00
   9.200   15.43    7.17    1.14   0.000   0.200   0.000    0.00
   9.250   15.47    7.92    1.18   0.000   0.200   0.000    0.00
   9.300   15.64    8.37    0.89   0.000   0.200   0.000    0.00
   9.350   15.33    3.92    0.80   0.000   0.200   0.000    0.00
   9.400   15.46    2.19    1.11   0.000   0.200   0.000    0.00
   9.450   15.73    4.70    0.91   0.000   0.200   0.000    0.00
   9.500   15.62    2.34    0.17   0.000   0.200   0.000    0.00
   9.550   15.32    0.94   -0.71   0.000   0.200   0.000    0.00
   9.600   15.24    3.81   -1.33   0.000   0.200   0.000    0.00
   9.650   14.86    3.60   -0.28   0.000   0.200   0.000    0.00
   9.700   15.12    2.16    0.02   0.000   0.200   0.000    0.00
   9.750   15.16    2.13   -0.03   0.000   0.200   0.000    0.00
   9.800   16.04   -0.23   -0.14   0.000   0.200   0.000    0.00
   9.850   15.04    0.27    0.32   0.000   0.200   0.000    0.00
   9.900   14.76    1.16   -0.01   0.000   0.200   0.000    0.00
   9.950   14.93    0.62   -0.14   0.000   0.200   0.000    0.00
  10.000   15.26   -0.06   -0.55   0.000   0.200   0.000    0.00
  10.050   15.29    1.62   -0.35   0.000   0.200   0.000    0.00
  10.100   15.52    3.86    0.21   0.000   0.200   0.000    0.00
  10.150   15.22    6.18    0.07   0.000   0.200   0.000    0.00
  10.200   15.50    6.86   -0.12   0.000   0.200   0.000    0.00
  10.250   16.08    8.44   -0.25   0.000   0.200   0.000    0.00
  10.300   15.96    7.67   -0.45   0.000   0.200   0.000    0.00
  10.350   16.72    9.43   -0.28   0.000   0.200   0.000    0.00
  10.400   16.54    9.63    0.21   0.000   0.200   0.000    0.00
  10.450   17.22    8.04    0.20   0.000   0.200   0.000    0.00
  10.500   16.72    7.27   -0.28   0.000   0.200   0.000    0.00
  10.550   16.97    7.37    0.20   0.000   0.200   0.000    0.00
  10.600   17.28    6.55    0.28   0.000   0.200   0.000    0.00
  10.650   16.62    6.31    0.38   0.000   0.200   0.000    0.00
  10.700   16.44    6.08   -0.31   0.000   0.200   0.000    0.00
  10.750   16.42    6.68   -0.05   0.000   0.200   0.000    0.00
  10.800   15.33    8.28   -0.05   0.000   0.200   0.000    0.00
  10.850   15.41    9.70   -0.06   0.000   0.200   0.000    0.00
  10.900   15.67    7.24    0.11   0.000   0.200   0.000    0.00
  10.950   15.52    7.33    0.44   0.000   0.200   0.000    0.00
  11.000   15.97    7.25    0.13   0.000   0.200   0.000    0.00
  11.050   16.29    8.59    0.90   0.000   0.200   0.000    0.00
  11.100   15.70    8.98    0.74   0.000   0.200   0.000    0.00
  11.150   15.83    8.89    0.75   0.000   0.200   0.000    0.00
  11.200   15.85    9.28    1.06   0.000   0.200   0.000    0.00
  11.250   15.80    8.19    1.09   0.000   0.200   0.000    0.00
  11.300   16.12    9.19    1.46   0.000   0.200   0.000    0.00
  11.350   15.46    8.49    1.51   0.000   0.200   0.000    0.00
  11.400   15.37    9.49    1.86   0.000   0.200   0.000    0.00
  11.450   15.17   12.09    1.62   0.000   0.200   0.000    0.00
  11.500   15.30   11.86    1.32   0.000   0.200   0.000    0.00
  11.550   15.15   11.47    1.01   0.000   0.200   0.000    0.00
  11.600   15.68   10.78    1.65   0.000   0.200   0.000    0.00
  11.650   15.56    9.40    2.17   0.000   0.200   0.000    0.00
  11.700   15.53    8.11    2.03   0.000   0.200   0.000    0.00
  11.750   15.69    9.38    1.90   0.000   0.200   0.000    0.00
  11.800   15.34    7.67    2.40   0.000   0.200   0.000    0.00
  11.850   15.15    7.23    2.89   0.000   0.200   0.000    0.00
  11.900   15.90    5.89    2.53   0.000   0.200   0.000    0.00
  11.950   15.61    4.57    2.54   0.000   0.200   0.000    0.00
  12.000   15.81    3.82    2.29   0.000   0.200   0.000    0.00
  12.050   16.10    3.25    1.91   0.000   0.200   0.000    0.00
  12.100   16.36    3.75    1.66   0.000   0.200   0.000    0.00
  12.150   16.17    6.52    1.71   0.000   0.200   0.000    0.00
  12.200   15.31    5.79    1.47   0.000   0.200   0.000    0.00
  12.250   14.84    3.67    0.95   0.000   0.200   0.000    0.00
  12.300   14.96    2.43    0.42   0.000   0.200   0.000    0.00
  12.350   14.49   -0.50    0.81   0.000   0.200   0.000    0.00
  12.400   13.72   -1.15    0.53   0.000   0.200   0.000    0.00
  12.450   13.27    0.99    0.77   0.000   0.200   0.000    0.00
  12.500   13.56   -0.11    0.31   0.000   0.200   0.000    0.00
  12.550   13.30   -2.63    0.06   0.000   0.200   0.000    0.00
  12.600   13.73   -3.29   -0.10   0.000   0.200   0.000    0.00
  12.650   14.16   -1.87   -0.46   0.000   0.200   0.000    0.00
  12.700   13.83   -2.98   -0.67   0.000   0.200   0.000    0.00
  12.750   13.74   -1.61   -1.40   0.000   0.200   0.000    0.00
  12.800   14.06   -0.24   -1.34   0.000   0.200   0.000    0.00
  12.850   14.76    0.82   -0.90   0.000   0.200   0.000    0.00
  12.900   14.77    0.48   -0.16   0.000   0.200   0.000    0.00
  12.950   14.64    0.43   -0.41   0.000   0.200   0.000    0.00
  13.000   13.81    1.43   -0.78   0.000   0.200   0.000    0.00
  13.050   14.28    3.17    0.15   0.000   0.200   0.000    0.00
  13.100   14.94    5.97    0.71   0.000   0.200   0.000    0.00
  13.150   14.49    6.22   -0.11   0.000   0.200   0.000    0.00
  13.200   14.26    5.18    0.04   0.000   0.200   0.000    0.00
  13.250   14.56    3.62   -0.73   0.000   0.200   0.000    0.00
  13.300   14.49    2.01   -0.94   0.000   0.200   0.000    0.00
  13.350   14.24    2.02   -0.36   0.000   0.200   0.000    0.00
  13.400   14.05    3.02   -1.20   0.000   0.200   0.000    0.00
  13.450   14.60    3.69   -1.48   0.000   0.200   0.000    0.00
  13.500   14.54    3.87   -1.40   0.000   0.200   0.000    0.00
  13.550   14.90    3.21   -1.53   0.000   0.200   0.000    0.00
  13.600   15.01    3.07   -1.06   0.000   0.200   0.000    0.00
  13.650   15.19    3.20   -0.24   0.000   0.200   0.000    0.00
  13.700   14.54    3.66   -0.15   0.000   0.200   0.000    0.00
  13.750   14.28    4.25   -0.24   0.000   0.200   0.000    0.00
  13.800   14.33    4.69   -0.71   0.000   0.200   0.000    0.00
  13.850   14.55    6.51   -0.33   0.000   0.200   0.000    0.00
  13.900   14.31    6.00   -0.72   0.000   0.200   0.000    0.00
  13.950   13.94    5.90   -0.42   0.000   0.200   0.000    0.00
  14.000   14.24    7.85   -0.61   0.000   0.200   0.000    0.00
  14.050   14.85    7.70    0.28   0.000   0.200   0.000    0.00
  14.100   15.25    7.78    0.09   0.000   0.200   0.000    0.00
  14.150   15.03    6.88   -0.13   0.000   0.200   0.000    0.00
  14.200   14.97    5.90   -0.48   0.000   0.200   0.000    0.00
  14.250   15.21    2.79   -0.62   0.000   0.200   0.000    0.00
  14.300   15.47    6.25   -0.95   0.000   0.200   0.000    0.00
  14.350   15.16   10.10   -0.45   0.000   0.200   0.000    0.00
  14.400   15.17    7.16   -0.29   0.000   0.200   0.000    0.00
  14.450   15.31    4.95   -0.04   0.000   0.200   0.000    0.00
  14.500   15.35    5.82   -0.04   0.000   0.200   0.000    0.00
  14.550   15.17    9.44    0.01   0.000   0.200   0.000    0.00
  14.600   16.05   12.28   -0.05   0.000   0.200   0.000    0.00
  14.650   15.88    7.42   -0.68   0.000   0.200   0.000    0.00
  14.700   15.68    3.58   -0.54   0.000   0.200   0.000    0.00
  14.750   15.98    4.80   -0.21   0.000   0.200   0.000    0.00
  14.800   16.27    2.65   -0.65   0.000   0.200   0.000    0.00
  14.850   16.49    3.37   -0.88   0.000   0.200   0.000    0.00
  14.900   16.73    3.50    0.08   0.000   0.200   0.000    0.00
  14.950   16.92    1.32   -0.26   0.000   0.200   0.000    0.00
  15.000   17.17    4.77   -0.68   0.000   0.200   0.000    0.00
  15.050   17.54    4.59   -0.74   0.000   0.200   0.000    0.00
  15.100   17.62    6.15   -0.02   0.000   0.200   0.000    0.00
  15.150   17.28    5.93    0.11   0.000   0.200   0.000    0.00
  15.200   16.92    4.47   -0.26   0.000   0.200   0.000    0.00
  15.250   17.05    4.13   -0.94   0.000   0.200   0.000    0.00
  15.300   17.44    5.05   -1.10   0.000   0.200   0.000    0.00
  15.350   17.28    3.45   -1.38   0.000   0.200   0.000    0.00
  15.400   16.87    0.97   -2.08   0.000   0.200   0.000    0.00
  15.450   16.32    1.57   -1.74   0.000   0.200   0.000    0.00
  15.500   16.37    0.72   -2.20   0.000   0.200   0.000    0.00
  15.550   16.79    3.50   -2.24   0.000   0.200   0.000    0.00
  15.600   16.26    4.71   -1.56   0.000   0.200   0.000    0.00
  15.650   16.69    1.79   -0.87   0.000   0.200   0.000    0.00
  15.700   16.69    1.29   -0.36   0.000   0.200   0.000    0.00
  15.750   15.98    0.99   -0.42   0.000   0.200   0.000    0.00
  15.800   15.68    1.82   -0.89   0.000   0.200   0.000    0.00
  15.850   15.84    1.54   -0.95   0.000   0.200   0.000    0.00
  15.900   15.52    2.31   -0.78   0.000   0.200   0.000    0.00
  15.950   15.41    1.30    0.17   0.000   0.200   0.000    0.00
  16.000   15.12    2.00    0.19   0.000   0.200   0.000    0.00
  16.050   15.17    1.58   -0.03   0.000   0.200   0.000    0.00
  16.100   16.02    0.41   -0.40   0.000   0.200   0.000    0.00
  16.150   15.96    0.18   -0.19   0.000   0.200   0.000    0.00
  16.200   16.01    1.40    0.15   0.000   0.200   0.000    0.00
  16.250   15.72    1.44    0.06   0.000   0.200   0.000    0.00
  16.300   16.10    1.69    0.63   0.000   0.200   0.000    0.00
  16.350   15.97    3.03    0.33   0.000   0.200   0.000    0.00
  16.400   15.85    3.03   -0.11   0.000   0.200   0.000    0.00
  16.450   15.86    4.16    0.08   0.000   0.200   0.000    0.00
  16.500   16.25    5.58    0.36   0.000   0.200   0.000    0.00
  16.550   15.89    4.62    0.80   0.000   0.200   0.000    0.00
  16.600   15.33    5.31    0.56   0.000   0.200   0.000    0.00
  16.650   15.22    4.23   -0.48   0.000   0.200   0.000    0.00
  16.700   14.91    4.34   -1.11   0.000   0.200   0.000    0.00
  16.750   14.92    3.00   -0.99   0.000   0.200   0.000    0.00
  16.800   16.00    4.04   -0.52   0.000   0.200   0.000    0.00
  16.850   15.12    4.13   -0.71   0.000   0.200   0.000    0.00
  16.900   15.09    0.31   -0.99   0.000   0.200   0.000    0.00
  16.950   15.48   -2.65   -0.86   0.000   0.200   0.000    0.00
  17.000   15.30   -1.53   -0.25   0.000   0.200   0.000    0.00
  17.050   15.18    1.81   -0.47   0.000   0.200   0.000    0.00
  17.100   14.91    0.87   -1.19   0.000   0.200   0.000    0.00
  17.150   14.92    1.29   -0.77   0.000   0.200   0.000    0.00
  17.200   15.45    1.31   -0.42   0.000   0.200   0.000    0.00
  17.250   15.82    2.39   -0.12   0.000   0.200   0.000    0.00
  17.300   16.18   -1.28   -0.84   0.000   0.200   0.000    0.00
  17.350   15.75    0.55   -0.96   0.000   0.200   0.000    0.00
  17.400   15.47    1.06    0.14   0.000   0.200   0.000    0.00
  17.450   15.57    0.62    0.09   0.000   0.200   0.000    0.00
  17.500   15.14    4.13   -0.35   0.000   0.200   0.000    0.00
  17.550   15.68    5.78   -0.36   0.000   0.200   0.000    0.00
  17.600   16.46    2.84   -0.77   0.000   0.200   0.000    0.00
  17.650   16.86    3.95   -0.78   0.000   0.200   0.000    0.00
  17.700   17.17    2.49   -0.52   0.000   0.200   0.000    0.00
  17.750   16.77    1.39   -0.97   0.000   0.200   0.000    0.00
  17.800   16.74    4.08   -1.18   0.000   0.200   0.000    0.00
  17.850   16.75    5.19   -0.57   0.000   0.200   0.000    0.00
  17.900   16.43    5.35   -0.84   0.000   0.200   0.000    0.00
  17.950   16.30    5.28   -0.40   0.000   0.200   0.000    0.00
  18.000   16.52    4.69   -0.65   0.000   0.200   0.000    0.00
  18.050   15.70    4.75   -0.95   0.000   0.200   0.000    0.00
  18.100   15.20    4.62   -0.33   0.000   0.200   0.000    0.00
  18.150   15.13    4.38   -0.28   0.000   0.200   0.000    0.00
  18.200   14.57    3.89   -0.39   0.000   0.200   0.000    0.00
  18.250   14.46    3.39   -0.58   0.000   0.200   0.000    0.00
  18.300   14.49    4.03   -0.46   0.000   0.200   0.000    0.00
  18.350   14.70    7.16   -0.48   0.000   0.200   0.000    0.00
  18.400   14.71    5.29   -0.06   0.000   0.200   0.000    0.00
  18.450   15.06    6.02    0.08   0.000   0.200   0.000    0.00
  18.500   14.89    1.56    0.18   0.000   0.200   0.000    0.00
  18.550   15.14   -0.61    0.21   0.000   0.200   0.000    0.00
  18.600   15.15    1.45    0.10   0.000   0.200   0.000    0.00
  18.650   15.08    0.21    0.23   0.000   0.200   0.000    0.00
  18.700   15.19   -1.05   -0.31   0.000   0.200   0.000    0.00
  18.750   14.62    1.21    0.15   0.000   0.200   0.000    0.00
  18.800   14.42   -2.44    0.65   0.000   0.200   0.000    0.00
  18.850   14.74   -1.77    0.02   0.000   0.200   0.000    0.00
  18.900   15.18    0.12   -0.37   0.000   0.200   0.000    0.00
  18.950   14.60    3.29    0.04   0.000   0.200   0.000    0.00
  19.000   14.43    5.06    0.04   0.000   0.200   0.000    0.00
  19.050   14.03    2.53   -0.10   0.000   0.200   0.000    0.00
  19.100   14.61    2.97   -0.49   0.000   0.200   0.000    0.00
  19.150   14.99    4.53   -0.46   0.000   0.200   0.000    0.00
  19.200   14.56    4.23   -0.24   0.000   0.200   0.000    0.00
  19.250   14.30    3.58    0.23   0.000   0.200   0.000    0.00
  19.300   14.51    5.54   -0.10   0.000   0.200   0.000    0.00
  19.350   14.16    3.04   -0.90   0.000   0.200   0.000    0.00
  19.400   13.77    0.13   -0.41   0.000   0.200   0.000    0.00
  19.450   13.50    1.37   -0.13   0.000   0.200   0.000    0.00
  19.500   12.94    1.00   -0.47   0.000   0.200   0.000    0.00
  19.550   13.12   -0.20   -0.71   0.000   0.200   0.000    0.00
  19.600   13.68    1.28   -1.10   0.000   0.200   0.000    0.00
  19.650   14.47    2.94   -1.83   0.000   0.200   0.000    0.00
  19.700   14.42    6.10   -1.20   0.000   0.200   0.000    0.00
  19.750   15.00    3.84   -0.91   0.000   0.200   0.000    0.00
  19.800   15.34    3.52   -0.56   0.000   0.200   0.000    0.00
  19.850   15.16    6.76   -0.04   0.000   0.200   0.000    0.00
  19.900   15.59    6.45    0.18   0.000   0.200   0.000    0.00
  19.950   15.63    8.09    0.08   0.000   0.200   0.000    0.00
  20.000   15.95    6.09    0.10   0.000   0.200   0.000    0.00
  20.050   15.31    2.02   -0.59   0.000   0.200   0.000    0.00
  20.100   15.44    2.17   -0.33   0.000   0.200   0.000    0.00
  20.150   15.84    0.62   -0.36   0.000   0.200   0.000    0.00
  20.200   16.15   -0.48   -1.08   0.000   0.200   0.000    0.00
  20.250   16.11    0.24   -1.11   0.000   0.200   0.000    0.00
  20.300   16.51    2.18   -1.29   0.000   0.200   0.000    0.00
  20.350   15.88    3.50   -0.84   0.000   0.200   0.000    0.00
  20.400   16.53    3.15   -0.69   0.000   0.200   0.000    0.00
  20.450   16.44    3.64   -0.77   0.000   0.200   0.000    0.00
  20.500   15.78    5.21   -1.03   0.000   0.200   0.000    0.00
  20.550   15.87    3.56   -0.81   0.000   0.200   0.000    0.00
  20.600   15.65    4.33   -1.01   0.000   0.200   0.000    0.00
  20.650   16.26    5.59   -1.37   0.000   0.200   0.000    0.00
  20.700   16.51    3.60   -1.74   0.000   0.200   0.000    0.00
  20.750   16.56    0.68   -2.04   0.000   0.200   0.000    0.00
  20.800   16.32    0.83   -1.79   0.000   0.200   0.000    0.00
  20.850   15.41    2.33   -1.78   0.000   0.200   0.000    0.00
  20.900   15.74    0.63   -2.74   0.000   0.200   0.000    0.00
  20.950   15.71   -1.67   -2.72   0.000   0.200   0.000    0.00
  21.000   16.11   -1.69   -2.16   0.000   0.200   0.000    0.00
  21.050   16.30   -1.66   -2.41   0.000   0.200   0.000    0.00
  21.100   16.24   -3.96   -1.65   0.000   0.200   0.000    0.00
  21.150   17.35   -3.77   -2.35   0.000   0.200   0.000    0.00
  21.200   17.11   -3.63   -1.69   0.000   0.200   0.000    0.00
  21.250   17.02   -3.98   -0.95   0.000   0.200   0.000    0.00
  21.300   17.09   -4.60   -1.39   0.000   0.200   0.000    0.00
  21.350   16.74   -4.17   -0.45   0.000   0.200   0.000    0.00
  21.400   16.73   -2.16   -0.47   0.000   0.200   0.000    0.00
  21.450   16.69   -1.78   -0.39   0.000   0.200   0.000    0.00
  21.500   15.57    1.03   -0.56   0.000   0.200   0.000    0.00
  21.550   15.18    0.70   -0.43   0.000   0.200   0.000    0.00
  21.600   16.01   -4.35   -0.86   0.000   0.200   0.000    0.00
  21.650   16.16   -6.18   -1.11   0.000   0.200   0.000    0.00
  21.700   15.63   -3.11   -1.31   0.000   0.200   0.000    0.00
  21.750   15.50   -0.50   -1.53   0.000   0.200   0.000    0.00
  21.800   15.69   -1.67   -0.66   0.000   0.200   0.000    0.00
  21.850   15.70   -1.70   -0.27   0.000   0.200   0.000    0.00
  21.900   15.56   -2.25   -0.33   0.000   0.200   0.000    0.00
  21.950   15.97    0.61    0.04   0.000   0.200   0.000    0.00
  22.000   16.28    1.64    0.58   0.000   0.200   0.000    0.00
  22.050   16.19    1.42   -0.52   0.000   0.200   0.000    0.00
  22.100   16.37    3.24    0.54   0.000   0.200   0.000    0.00
  22.150   17.42    3.34    1.02   0.000   0.200   0.000    0.00
  22.200   17.40    6.50    1.47   0.000   0.200   0.000    0.00
  22.250   17.49    4.27    0.77   0.000   0.200   0.000    0.00
  22.300   17.16    3.71    0.38   0.000   0.200   0.000    0.00
  22.350   17.20    4.42    0.54   0.000   0.200   0.000    0.00