! This hub-height wind-speed file was generated by TurbSim (v1.06.00, 21-Sep-2012) on 03-Feb-2018 at 23:28:42.
!
! The requested statistics for this data were:
!    Mean Total Wind Speed =   11.000 m/s
!    Turbulence Intensity  =   27.654%
!
!   Time  HorSpd  WndDir  VerSpd  HorShr  VerShr  LnVShr  GstSpd
!  (sec)   (m/s)   (deg)   (m/s)     (-)     (-)     (-)   (m/s)
   0.000    9.42   -8.36    2.67   0.000   0.200   0.000    0.00
   0.050    8.89   -7.12    2.60   0.000   0.200   0.000    0.00
   0.100    8.58  -10.79    2.05   0.000   0.200   0.000    0.00
   0.150    8.99   -9.58    2.04   0.000   0.200   0.000    0.00
   0.200    8.98    1.19    1.61   0.000   0.200   0.000    0.00
   0.250    9.31    0.21    1.50   0.000   0.200   0.000    0.00
   0.300    9.72    3.71    0.79   0.000   0.200   0.000    0.00
   0.350    9.92   -1.64    1.04   0.000   0.200   0.000    0.00
   0.400    9.54   -2.38    0.66   0.000   0.200   0.000    0.00
   0.450    9.23    1.76    0.14   0.000   0.200   0.000    0.00
   0.500    9.21    3.00   -0.17   0.000   0.200   0.000    0.00
   0.550    8.48    0.23   -0.49   0.000   0.200   0.000    0.00
   0.600    8.23    0.12   -0.41   0.000   0.200   0.000    0.00
   0.650    7.94    3.09   -0.78   0.000   0.200   0.000    0.00
   0.700    8.19   -0.63   -1.32   0.000   0.200   0.000    0.00
   0.750    8.29    2.58   -0.76   0.000   0.200   0.000    0.00
   0.800    7.35    2.24    0.15   0.000   0.200   0.000    0.00
   0.850    8.13   -3.74   -0.23   0.000   0.200   0.000    0.00
   0.900    7.64   -2.90   -0.88   0.000   0.200   0.000    0.00
   0.950    7.73   -4.02   -0.71   0.000   0.200   0.000    0.00
   1.000    7.86   -2.44   -0.77   0.000   0.200   0.000    0.00
   1.050    7.39   -3.96   -0.73   0.000   0.200   0.000    0.00
   1.100    6.89   -5.41   -0.37   0.000   0.200   0.000    0.00
   1.150    6.48   -1.21   -0.28   0.000   0.200   0.000    0.00
   1.200    6.88   -1.92   -0.38   0.000   0.200   0.000    0.00
   1.250    7.09  -10.92   -0.24   0.000   0.200   0.000    0.00
   1.300    7.11   -8.97    1.08   0.000   0.200   0.000    0.00
   1.350    7.46   -3.80    1.02   0.000   0.200   0.000    0.00
   1.400    7.74   -6.08    2.24   0.000   0.200   0.000    0.00
   1.450    7.05   -7.13    1.48   0.000   0.200   0.000    0.00
   1.500    7.18   -7.93    0.26   0.000   0.200   0.000    0.00
   1.550    7.68   -9.37    0.00   0.000   0.200   0.000    0.00
   1.600    7.33   -5.69   -0.25   0.000   0.200   0.000    0.00
   1.650    7.48   -7.46    0.34   0.000   0.200   0.000    0.00
   1.700    6.72   -6.64    0.09   0.000   0.200   0.000    0.00
   1.750    6.99   -7.81    0.15   0.000   0.200   0.000    0.00
   1.800    6.94   -3.56    0.20   0.000   0.200   0.000    0.00
   1.850    7.09   -7.08   -0.50   0.000   0.200   0.000    0.00
   1.900    6.63   -5.81   -0.66   0.000   0.200   0.000    0.00
   1.950    6.38   -6.98   -0.85   0.000   0.200   0.000    0.00
   2.000    5.91   -2.73   -0.85   0.000   0.200   0.000    0.00
   2.050    5.52    4.12   -0.19   0.000   0.200   0.000    0.00
   2.100    5.69   -6.23    0.14   0.000   0.200   0.000    0.00
   2.150    5.99   -1.54    0.41   0.000   0.200   0.000    0.00
   2.200    6.47   -1.77   -0.20   0.000   0.200   0.000    0.00
   2.250    7.30   -3.13   -0.42   0.000   0.200   0.000    0.00
   2.300    7.33   -5.62    0.04   0.000   0.200   0.000    0.00
   2.350    7.86   -6.59    0.26   0.000   0.200   0.000    0.00
   2.400    8.99   -0.98   -0.33   0.000   0.200   0.000    0.00
   2.450    9.00   -2.46   -0.26   0.000   0.200   0.000    0.00
   2.500    9.16    0.59   -0.66   0.000   0.200   0.000    0.00
   2.550    8.74   -0.49    0.35   0.000   0.200   0.000    0.00
   2.600    8.60   -3.88    0.25   0.000   0.200   0.000    0.00
   2.650    7.88   -1.61   -0.51   0.000   0.200   0.000    0.00
   2.700    7.77    2.92   -0.45   0.000   0.200   0.000    0.00
   2.750    8.97    1.67    0.17   0.000   0.200   0.000    0.00
   2.800    8.37    8.42   -0.15   0.000   0.200   0.000    0.00
   2.850    8.26   10.51   -0.93   0.000   0.200   0.000    0.00
   2.900    7.96    3.68   -1.23   0.000   0.200   0.000    0.00
   2.950    8.18    7.63   -1.60   0.000   0.200   0.000    0.00
   3.000    7.05   12.00   -1.29   0.000   0.200   0.000    0.00
   3.050    7.00    4.44   -1.29   0.000   0.200   0.000    0.00
   3.100    6.59    0.45   -0.59   0.000   0.200   0.000    0.00
   3.150    6.98    0.44    0.35   0.000   0.200   0.000    0.00
   3.200    7.18    1.90    0.11   0.000   0.200   0.000    0.00
   3.250    6.95    1.89   -0.56   0.000   0.200   0.000    0.00
   3.300    7.90    2.03   -1.56   0.000   0.200   0.000    0.00
   3.350    9.19    6.02   -1.31   0.000   0.200   0.000    0.00
   3.400    9.50    6.54   -0.72   0.000   0.200   0.000    0.00
   3.450    9.56    5.24   -1.41   0.000   0.200   0.000    0.00
   3.500    9.38    6.74   -1.05   0.000   0.200   0.000    0.00
   3.550    9.13   -2.64   -0.42   0.000   0.200   0.000    0.00
   3.600    9.57    1.83   -1.24   0.000   0.200   0.000    0.00
   3.650    9.82    5.07   -0.97   0.000   0.200   0.000    0.00
   3.700    9.85   -0.43   -0.84   0.000   0.200   0.000    0.00
   3.750    9.54    1.39    0.07   0.000   0.200   0.000    0.00
   3.800    9.93   10.26    0.48   0.000   0.200   0.000    0.00
   3.850   10.31    8.79    0.28   0.000   0.200   0.000    0.00
   3.900   10.67   13.10    0.68   0.000   0.200   0.000    0.00
   3.950   11.28   13.79    0.64   0.000   0.200   0.000    0.00
   4.000   10.73   11.72    0.59   0.000   0.200   0.000    0.00
   4.050   11.22   14.03   -0.45   0.000   0.200   0.000    0.00
   4.100   11.26   13.62   -0.58   0.000   0.200   0.000    0.00
   4.150   10.77   15.47   -1.18   0.000   0.200   0.000    0.00
   4.200   10.70   14.08   -1.08   0.000   0.200   0.000    0.00
   4.250   10.57   18.54   -0.17   0.000   0.200   0.000    0.00
   4.300   10.88   21.27    0.60   0.000   0.200   0.000    0.00
   4.350   10.63   18.62    1.04   0.000   0.200   0.000    0.00
   4.400   10.68   21.57    1.15   0.000   0.200   0.000    0.00
   4.450   10.77   21.74    0.72   0.000   0.200   0.000    0.00
   4.500   10.32   15.23    0.56   0.000   0.200   0.000    0.00
   4.550   10.04   14.68   -0.31   0.000   0.200   0.000    0.00
   4.600    9.41   19.74   -0.77   0.000   0.200   0.000    0.00
   4.650    9.14   19.26   -0.53   0.000   0.200   0.000    0.00
   4.700    9.57   21.12   -0.23   0.000   0.200   0.000    0.00
   4.750    9.23   21.93    0.20   0.000   0.200   0.000    0.00
   4.800    8.48   21.83   -0.22   0.000   0.200   0.000    0.00
   4.850    8.68   22.43   -0.35   0.000   0.200   0.000    0.00
   4.900    9.18   20.57   -0.13   0.000   0.200   0.000    0.00
   4.950    9.19   19.70   -0.20   0.000   0.200   0.000    0.00
   5.000    9.73   18.51   -0.26   0.000   0.200   0.000    0.00
   5.050   10.26   23.11    0.32   0.000   0.200   0.000    0.00
   5.100   10.79   20.62    1.27   0.000   0.200   0.000    0.00
   5.150   11.09   15.71    1.66   0.000   0.200   0.000    0.00
   5.200   10.90   12.27    1.45   0.000   0.200   0.000    0.00
   5.250   10.81   11.49    0.84   0.000   0.200   0.000    0.00
   5.300   11.23   13.62    0.52   0.000   0.200   0.000    0.00
   5.350   10.82   13.41    0.82   0.000   0.200   0.000    0.00
   5.400   10.32   12.09    0.15   0.000   0.200   0.000    0.00
   5.450   11.22   16.84    0.18   0.000   0.200   0.000    0.00
   5.500   11.07   15.49   -0.03   0.000   0.200   0.000    0.00
   5.550   11.11   16.46   -0.27   0.000   0.200   0.000    0.00
   5.600   11.00   13.21   -0.03   0.000   0.200   0.000    0.00
   5.650   11.05   13.12   -0.24   0.000   0.200   0.000    0.00
   5.700   10.99    9.52    0.73   0.000   0.200   0.000    0.00
   5.750   10.95    7.71    0.92   0.000   0.200   0.000    0.00
   5.800   10.33    7.21    0.38   0.000   0.200   0.000    0.00
   5.850    9.68   14.33    0.41   0.000   0.200   0.000    0.00
   5.900    9.55   14.46    0.86   0.000   0.200   0.000    0.00
   5.950   10.00   10.80    1.36   0.000   0.200   0.000    0.00
   6.000   10.17   10.75    1.58   0.000   0.200   0.000    0.00
   6.050   10.28   13.30    1.73   0.000   0.200   0.000    0.00
   6.100   10.55   15.52    1.93   0.000   0.200   0.000    0.00
   6.150   10.17   10.84    2.20   0.000   0.200   0.000    0.00
   6.200    8.75    7.23    2.21   0.000   0.200   0.000    0.00
   6.250    9.38    8.48    1.55   0.000   0.200   0.000    0.00
   6.300    9.62    5.96    1.76   0.000   0.200   0.000    0.00
   6.350    9.31    8.92    1.61   0.000   0.200   0.000    0.00
   6.400    8.90   10.13    0.82   0.000   0.200   0.000    0.00
   6.450    9.38   11.63    0.66   0.000   0.200   0.000    0.00
   6.500    9.53   17.26    0.46   0.000   0.200   0.000    0.00
   6.550    9.42   14.57   -0.76   0.000   0.200   0.000    0.00
   6.600    9.82   12.99   -0.13   0.000   0.200   0.000    0.00
   6.650    9.44   11.06   -0.05   0.000   0.200   0.000    0.00
   6.700    9.07    9.61   -0.60   0.000   0.200   0.000    0.00
   6.750    8.97   11.45   -0.87   0.000   0.200   0.000    0.00
   6.800    8.91    8.57   -1.12   0.000   0.200   0.000    0.00
   6.850    9.32    3.87   -0.66   0.000   0.200   0.000    0.00
   6.900    9.41    5.53   -1.23   0.000   0.200   0.000    0.00
   6.950    9.40    2.17    0.14   0.000   0.200   0.000    0.00
   7.000    8.68   -2.72    1.19   0.000   0.200   0.000    0.00
   7.050    9.58   -3.69    1.10   0.000   0.200   0.000    0.00
   7.100    8.85   -4.16    0.51   0.000   0.200   0.000    0.00
   7.150    9.11    0.97    0.31   0.000   0.200   0.000    0.00
   7.200    8.40    0.17    0.37   0.000   0.200   0.000    0.00
   7.250    8.51   -8.37    1.07   0.000   0.200   0.000    0.00
   7.300    8.19  -11.88    0.64   0.000   0.200   0.000    0.00
   7.350    8.04   -3.62    0.53   0.000   0.200   0.000    0.00
   7.400    8.08   -0.91   -0.16   0.000   0.200   0.000    0.00
   7.450    8.90   -1.68   -0.37   0.000   0.200   0.000    0.00
   7.500    9.25   -1.62   -0.10   0.000   0.200   0.000    0.00
   7.550    8.70   -4.04   -0.27   0.000   0.200   0.000    0.00
   7.600    7.77    0.29   -0.52   0.000   0.200   0.000    0.00
   7.650    7.83   -4.82   -0.99   0.000   0.200   0.000    0.00
   7.700    8.10   -9.35   -1.68   0.000   0.200   0.000    0.00
   7.750    6.91   -6.07   -1.36   0.000   0.200   0.000    0.00
   7.800    7.28   -1.66   -0.61   0.000   0.200   0.000    0.00
   7.850    6.74    1.23   -0.76   0.000   0.200   0.000    0.00
   7.900    6.72  -11.51   -0.59   0.000   0.200   0.000    0.00
   7.950    7.71  -13.09   -0.73   0.000   0.200   0.000    0.00
   8.000    7.24  -16.13   -1.06   0.000   0.200   0.000    0.00
   8.050    7.38  -11.92   -1.79   0.000   0.200   0.000    0.00
   8.100    7.25  -10.28   -1.85   0.000   0.200   0.000    0.00
   8.150    6.91  -13.14   -1.15   0.000   0.200   0.000    0.00
   8.200    7.00  -14.56   -1.25   0.000   0.200   0.000    0.00
   8.250    7.45  -14.30   -0.24   0.000   0.200   0.000    0.00
   8.300    6.98   -5.66   -0.37   0.000   0.200   0.000    0.00
   8.350    7.80   -4.92   -0.19   0.000   0.200   0.000    0.00
   8.400    8.15   -3.86   -1.15   0.000   0.200   0.000    0.00
   8.450    8.40   -4.45   -1.99   0.000   0.200   0.000    0.00
   8.500    8.67   -1.56   -1.39   0.000   0.200   0.000    0.00
   8.550    8.42   -3.27   -1.63   0.000   0.200   0.000    0.00
   8.600    8.59   -8.35   -2.47   0.000   0.200   0.000    0.00
   8.650    8.87   -9.45   -2.07   0.000   0.200   0.000    0.00
   8.700    8.93   -7.97   -2.43   0.000   0.200   0.000    0.00
   8.750    9.26   -9.75   -2.02   0.000   0.200   0.000    0.00
   8.800    8.93  -13.14   -0.82   0.000   0.200   0.000    0.00
   8.850    9.13  -13.01   -0.68   0.000   0.200   0.000    0.00
   8.900    9.01  -11.55   -0.85   0.000   0.200   0.000    0.00
   8.950    9.13  -14.61   -1.26   0.000   0.200   0.000    0.00
   9.000    8.68  -12.49   -1.47   0.000   0.200   0.000    0.00
   9.050    9.19  -11.99   -1.41   0.000   0.200   0.000    0.00
   9.100    9.37  -10.71   -1.65   0.000   0.200   0.000    0.00
   9.150    9.72  -10.73   -2.07   0.000   0.200   0.000    0.00
   9.200    9.34  -13.08   -2.21   0.000   0.200   0.000    0.00
   9.250    9.08   -6.88   -1.29   0.000   0.200   0.000    0.00
   9.300    8.53   -7.91   -1.23   0.000   0.200   0.000    0.00
   9.350    8.80  -12.48   -1.53   0.000   0.200   0.000    0.00
   9.400    8.71   -8.59   -1.54   0.000   0.200   0.000    0.00
   9.450    9.04   -7.89   -0.75   0.000   0.200   0.000    0.00
   9.500    8.81   -6.44   -1.00   0.000   0.200   0.000    0.00
   9.550    9.46  -10.40    0.22   0.000   0.200   0.000    0.00
   9.600    9.78  -18.51    1.19   0.000   0.200   0.000    0.00
   9.650    9.89  -16.99    0.99   0.000   0.200   0.000    0.00
   9.700   10.23  -22.32   -0.41   0.000   0.200   0.000    0.00
   9.750    9.75  -20.15   -1.14   0.000   0.200   0.000    0.00
   9.800    9.60  -11.57   -0.56   0.000   0.200   0.000    0.00
   9.850    9.96   -4.82   -0.05   0.000   0.200   0.000    0.00
   9.900    9.45   -3.64   -0.19   0.000   0.200   0.000    0.00
   9.950    9.39   -8.59    0.06   0.000   0.200   0.000    0.00
  10.000    9.62   -8.32    1.03   0.000   0.200   0.000    0.00
  10.050    9.99   -8.41    0.35   0.000   0.200   0.000    0.00
  10.100   10.16   -8.27    0.77   0.000   0.200   0.000    0.00
  10.150   10.78   -9.79    0.84   0.000   0.200   0.000    0.00
  10.200   11.77  -10.44    1.03   0.000   0.200   0.000    0.00
  10.250   11.44   -8.58    0.88   0.000   0.200   0.000    0.00
  10.300   10.97   -5.82    0.54   0.000   0.200   0.000    0.00
  10.350   11.51   -3.94    0.54   0.000   0.200   0.000    0.00
  10.400   10.64   -3.76    0.85   0.000   0.200   0.000    0.00
  10.450   10.80   -7.08    0.91   0.000   0.200   0.000    0.00
  10.500    9.80   -6.72    1.41   0.000   0.200   0.000    0.00
  10.550    8.29   -7.12    1.93   0.000   0.200   0.000    0.00
  10.600    9.11   -3.14    2.15   0.000   0.200   0.000    0.00
  10.650    9.01   -5.32    3.07   0.000   0.200   0.000    0.00
  10.700    9.13   -8.40    3.24   0.000   0.200   0.000    0.00
  10.750    9.20   -9.12    2.52   0.000   0.200   0.000    0.00
  10.800    9.19  -11.39    2.95   0.000   0.200   0.000    0.00
  10.850    9.49  -12.11    2.90   0.000   0.200   0.000    0.00
  10.900    8.95   -6.13    3.44   0.000   0.200   0.000    0.00
  10.950    9.16   -8.65    2.67   0.000   0.200   0.000    0.00
  11.000   10.21   -3.11    2.66   0.000   0.200   0.000    0.00
  11.050   11.41   -0.89    3.16   0.000   0.200   0.000    0.00
  11.100   11.59    3.18    2.78   0.000   0.200   0.000    0.00
  11.150   11.48    0.34    3.35   0.000   0.200   0.000    0.00
  11.200   12.25   -3.17    1.93   0.000   0.200   0.000    0.00
  11.250   12.41   -5.90    1.62   0.000   0.200   0.000    0.00
  11.300   10.53   -6.77    1.01   0.000   0.200   0.000    0.00
  11.350   10.05   -6.03    0.91   0.000   0.200   0.000    0.00
  11.400   10.95   -5.10    1.16   0.000   0.200   0.000    0.00
  11.450   10.73   -7.56    0.93   0.000   0.200   0.000    0.00
  11.500   10.71   -6.03    1.15   0.000   0.200   0.000    0.00
  11.550   10.92   -7.63    0.90   0.000   0.200   0.000    0.00
  11.600   10.81   -3.81    1.06   0.000   0.200   0.000    0.00
  11.650   10.08    0.88    0.60   0.000   0.200   0.000    0.00
  11.700   10.16    3.07    0.69   0.000   0.200   0.000    0.00
  11.750    9.98    3.38    0.28   0.000   0.200   0.000    0.00
  11.800   10.11    0.13    0.76   0.000   0.200   0.000    0.00
  11.850   10.86   -3.91    1.00   0.000   0.200   0.000    0.00
  11.900   11.06    2.93    1.28   0.000   0.200   0.000    0.00
  11.950   12.11    2.99    1.52   0.000   0.200   0.000    0.00
  12.000   11.87    2.37    1.14   0.000   0.200   0.000    0.00
  12.050   11.03    4.53    2.06   0.000   0.200   0.000    0.00
  12.100   11.29    4.61    1.22   0.000   0.200   0.000    0.00
  12.150   11.04    7.87    0.80   0.000   0.200   0.000    0.00
  12.200   11.07    7.81    0.96   0.000   0.200   0.000    0.00
  12.250   11.96   -1.37    0.41   0.000   0.200   0.000    0.00
  12.300   11.76    0.91    0.18   0.000   0.200   0.000    0.00
  12.350   11.07    0.99    1.33   0.000   0.200   0.000    0.00
  12.400   10.84    1.75    1.59   0.000   0.200   0.000    0.00
  12.450    9.97   -2.58    0.61   0.000   0.200   0.000    0.00
  12.500    9.26    3.40    0.71   0.000   0.200   0.000    0.00
  12.550   10.67    6.59   -0.03   0.000   0.200   0.000    0.00
  12.600   10.98    9.17    0.66   0.000   0.200   0.000    0.00
  12.650   10.91   10.24    0.33   0.000   0.200   0.000    0.00
  12.700   11.63   10.26    0.34   0.000   0.200   0.000    0.00
  12.750   11.28   12.76   -0.99   0.000   0.200   0.000    0.00
  12.800   11.30   11.84   -1.85   0.000   0.200   0.000    0.00
  12.850   11.43    9.67   -1.58   0.000   0.200   0.000    0.00
  12.900   11.21    9.16   -1.33   0.000   0.200   0.000    0.00
  12.950   11.25    7.17   -1.52   0.000   0.200   0.000    0.00
  13.000   11.34    6.69   -1.72   0.000   0.200   0.000    0.00
  13.050   11.62    6.41   -1.13   0.000   0.200   0.000    0.00
  13.100   11.75    4.53   -0.71   0.000   0.200   0.000    0.00
  13.150   11.42    9.09    0.23   0.000   0.200   0.000    0.00
  13.200   11.48   12.21   -0.30   0.000   0.200   0.000    0.00
  13.250   11.25   13.59   -1.24   0.000   0.200   0.000    0.00
  13.300   11.07   14.85   -1.65   0.000   0.200   0.000    0.00
  13.350   10.47   14.73   -1.79   0.000   0.200   0.000    0.00
  13.400   10.73   13.15   -1.23   0.000   0.200   0.000    0.00
  13.450   10.87   15.13   -1.37   0.000   0.200   0.000    0.00
  13.500   10.86   19.08   -1.00   0.000   0.200   0.000    0.00
  13.550   10.70   18.42   -1.14   0.000   0.200   0.000    0.00
  13.600   11.27   15.81   -1.41   0.000   0.200   0.000    0.00
  13.650   10.92   18.65   -0.77   0.000   0.200   0.000    0.00
  13.700   10.56   20.56    0.16   0.000   0.200   0.000    0.00
  13.750   10.25   18.72    0.81   0.000   0.200   0.000    0.00
  13.800   11.03   22.63    0.84   0.000   0.200   0.000    0.00
  13.850   11.22   19.44    1.39   0.000   0.200   0.000    0.00
  13.900   10.97   19.24    0.76   0.000   0.200   0.000    0.00
  13.950   10.79   19.90    0.71   0.000   0.200   0.000    0.00
  14.000    9.48   22.25    0.12   0.000   0.200   0.000    0.00
  14.050    9.93   21.94   -0.07   0.000   0.200   0.000    0.00
  14.100   10.31   23.10   -1.54   0.000   0.200   0.000    0.00
  14.150    9.16   21.77   -0.91   0.000   0.200   0.000    0.00
  14.200    9.47   22.19   -0.76   0.000   0.200   0.000    0.00
  14.250    9.77   21.14   -0.55   0.000   0.200   0.000    0.00
  14.300    9.54   21.88   -0.79   0.000   0.200   0.000    0.00
  14.350    9.76   25.66   -0.41   0.000   0.200   0.000    0.00
  14.400    9.98   28.85   -0.72   0.000   0.200   0.000    0.00
  14.450   10.28   29.95   -0.76   0.000   0.200   0.000    0.00
  14.500   10.46   25.33   -1.04   0.000   0.200   0.000    0.00
  14.550   10.56   25.59   -1.09   0.000   0.200   0.000    0.00
  14.600    9.94   25.85   -0.99   0.000   0.200   0.000    0.00
  14.650    9.31   26.17   -0.33   0.000   0.200   0.000    0.00
  14.700    9.46   20.73   -0.60   0.000   0.200   0.000    0.00
  14.750    9.53   25.34   -0.78   0.000   0.200   0.000    0.00
  14.800    9.36   22.74   -1.51   0.000   0.200   0.000    0.00
  14.850   10.04   26.32   -1.76   0.000   0.200   0.000    0.00
  14.900   10.55   20.42   -1.86   0.000   0.200   0.000    0.00
  14.950   10.76   16.82   -2.43   0.000   0.200   0.000    0.00
  15.000   10.92   15.14   -2.40   0.000   0.200   0.000    0.00
  15.050   10.93   13.18   -2.05   0.000   0.200   0.000    0.00
  15.100   10.71   14.67   -2.06   0.000   0.200   0.000    0.00
  15.150   10.59   16.38   -2.22   0.000   0.200   0.000    0.00
  15.200   10.35   12.35   -2.86   0.000   0.200   0.000    0.00
  15.250   11.05   15.95   -2.35   0.000   0.200   0.000    0.00
  15.300   10.96   18.13   -2.62   0.000   0.200   0.000    0.00
  15.350   10.59   18.15   -2.23   0.000   0.200   0.000    0.00
  15.400   11.14   14.11   -1.50   0.000   0.200   0.000    0.00
  15.450   12.55   13.78   -1.44   0.000   0.200   0.000    0.00
  15.500   11.85   14.91   -1.44   0.000   0.200   0.000    0.00
  15.550   11.58   14.04   -1.84   0.000   0.200   0.000    0.00
  15.600   11.90   12.25   -2.28   0.000   0.200   0.000    0.00
  15.650   11.07    9.41   -1.88   0.000   0.200   0.000    0.00
  15.700   11.76   10.35   -1.72   0.000   0.200   0.000    0.00
  15.750   11.77   12.30   -1.66   0.000   0.200   0.000    0.00
  15.800   11.89    6.15   -2.18   0.000   0.200   0.000    0.00
  15.850   11.68    7.11   -2.56   0.000   0.200   0.000    0.00
  15.900   12.41    9.19   -1.90   0.000   0.200   0.000    0.00
  15.950   12.49   10.16   -1.51   0.000   0.200   0.000    0.00
  16.000   12.67    6.79   -0.68   0.000   0.200   0.000    0.00
  16.050   13.21    4.01   -1.53   0.000   0.200   0.000    0.00
  16.100   12.82    4.02   -2.23   0.000   0.200   0.000    0.00
  16.150   12.97    2.59   -2.38   0.000   0.200   0.000    0.00
  16.200   13.45    6.01   -1.79   0.000   0.200   0.000    0.00
  16.250   13.22    6.87   -1.87   0.000   0.200   0.000    0.00
  16.300   12.79    5.71   -2.01   0.000   0.200   0.000    0.00
  16.350   12.46    6.38   -1.98   0.000   0.200   0.000    0.00
  16.400   13.29    9.70   -1.07   0.000   0.200   0.000    0.00
  16.450   12.90    8.45   -0.07   0.000   0.200   0.000    0.00
  16.500   13.06   10.39   -0.44   0.000   0.200   0.000    0.00
  16.550   13.15   10.54    0.16   0.000   0.200   0.000    0.00
  16.600   12.61   11.36    0.33   0.000   0.200   0.000    0.00
  16.650   11.13   13.35    0.05   0.000   0.200   0.000    0.00
  16.700   11.06    9.42    0.08   0.000   0.200   0.000    0.00
  16.750   10.88   10.51    0.31   0.000   0.200   0.000    0.00
  16.800    9.42    4.61    0.68   0.000   0.200   0.000    0.00
  16.850    9.95    5.83    0.50   0.000   0.200   0.000    0.00
  16.900   10.91    6.74    0.56   0.000   0.200   0.000    0.00
  16.950   10.97    7.85    0.65   0.000   0.200   0.000    0.00
  17.000   11.29    4.94    1.27   0.000   0.200   0.000    0.00
  17.050   11.80    5.59    1.35   0.000   0.200   0.000    0.00
  17.100   11.74    5.69    1.15   0.000   0.200   0.000    0.00
  17.150   10.77    6.11    1.75   0.000   0.200   0.000    0.00
  17.200   11.34    9.35    1.55   0.000   0.200   0.000    0.00
  17.250   10.66    3.15    1.45   0.000   0.200   0.000    0.00
  17.300   11.00    5.27    1.22   0.000   0.200   0.000    0.00
  17.350   11.57    3.49    1.02   0.000   0.200   0.000    0.00
  17.400   11.35    2.70    1.11   0.000   0.200   0.000    0.00
  17.450   10.92    5.28    1.81   0.000   0.200   0.000    0.00
  17.500   10.03    5.86    2.99   0.000   0.200   0.000    0.00
  17.550   10.04    2.07    3.06   0.000   0.200   0.000    0.00
  17.600   10.45    0.94    3.06   0.000   0.200   0.000    0.00
  17.650   10.67    5.48    2.97   0.000   0.200   0.000    0.00
  17.700   10.61    1.63    1.78   0.000   0.200   0.000    0.00
  17.750   10.71    5.77    1.70   0.000   0.200   0.000    0.00
  17.800   11.45    7.07    2.01   0.000   0.200   0.000    0.00
  17.850   11.68    7.17    1.76   0.000   0.200   0.000    0.00
  17.900   11.57   10.84    1.63   0.000   0.200   0.000    0.00
  17.950   12.12    9.01    1.46   0.000   0.200   0.000    0.00
  18.000   12.53   10.95    1.81   0.000   0.200   0.000    0.00
  18.050   12.89    9.58    2.06   0.000   0.200   0.000    0.00
  18.100   12.32   16.17    0.99   0.000   0.200   0.000    0.00
  18.150   12.82   15.10    1.29   0.000   0.200   0.000    0.00
  18.200   12.74   13.47    2.40   0.000   0.200   0.000    0.00
  18.250   12.42   13.47    1.38   0.000   0.200   0.000    0.00
  18.300   13.18   12.63    1.84   0.000   0.200   0.000    0.00
  18.350   13.07   11.64    1.44   0.000   0.200   0.000    0.00
  18.400   12.22    7.84    0.80   0.000   0.200   0.000    0.00
  18.450   13.05   10.78    0.44   0.000   0.200   0.000    0.00
  18.500   13.36   12.11    0.88   0.000   0.200   0.000    0.00
  18.550   13.06    8.53    0.38   0.000   0.200   0.000    0.00
  18.600   12.50    9.13    0.25   0.000   0.200   0.000    0.00
  18.650   12.40    8.76    0.06   0.000   0.200   0.000    0.00
  18.700   13.17    8.62    0.88   0.000   0.200   0.000    0.00
  18.750   13.58    7.81    1.52   0.000   0.200   0.000    0.00
  18.800   13.10    7.68    1.01   0.000   0.200   0.000    0.00
  18.850   12.76   13.14    0.35   0.000   0.200   0.000    0.00
  18.900   12.40   10.14    0.11   0.000   0.200   0.000    0.00
  18.950   11.40   11.39    0.63   0.000   0.200   0.000    0.00
  19.000   12.14    9.65    0.88   0.000   0.200   0.000    0.00
  19.050   12.16   11.41    0.90   0.000   0.200   0.000    0.00
  19.100   11.92   11.27    1.23   0.000   0.200   0.000    0.00
  19.150   11.87   10.73    1.06   0.000   0.200   0.000    0.00
  19.200   11.26   10.30    0.37   0.000   0.200   0.000    0.00
  19.250   11.14   10.40    0.09   0.000   0.200   0.000    0.00
  19.300   11.43   13.94   -1.58   0.000   0.200   0.000    0.00
  19.350   10.97   14.73   -1.53   0.000   0.200   0.000    0.00
  19.400    9.95    8.96   -1.29   0.000   0.200   0.000    0.00
  19.450    9.11    4.89   -1.22   0.000   0.200   0.000    0.00
  19.500   10.04    2.82   -2.05   0.000   0.200   0.000    0.00
  19.550   10.11    5.61   -0.70   0.000   0.200   0.000    0.00
  19.600   10.18    7.27   -0.58   0.000   0.200   0.000    0.00
  19.650   10.04   11.01   -0.23   0.000   0.200   0.000    0.00
  19.700    9.99    4.39   -1.26   0.000   0.200   0.000    0.00
  19.750   10.55    0.54   -1.70   0.000   0.200   0.000    0.00
  19.800   10.64    0.80   -1.63   0.000   0.200   0.000    0.00
  19.850   10.15    4.25   -1.38   0.000   0.200   0.000    0.00
  19.900   10.16   -2.74   -1.58   0.000   0.200   0.000    0.00
  19.950   10.70   -1.93   -0.47   0.000   0.200   0.000    0.00
  20.000   10.40    1.00   -0.02   0.000   0.200   0.000    0.00
  20.050   10.01    0.36   -0.64   0.000   0.200   0.000    0.00
  20.100   10.21    0.03   -0.08   0.000   0.200   0.000    0.00
  20.150   10.33   -0.23   -1.18   0.000   0.200   0.000    0.00
  20.200    9.86    1.57   -1.38   0.000   0.200   0.000    0.00
  20.250   10.57    4.04   -2.60   0.000   0.200   0.000    0.00
  20.300   10.74    2.24   -2.58   0.000   0.200   0.000    0.00
  20.350   10.87    0.88   -3.48   0.000   0.200   0.000    0.00
  20.400   10.40   -1.33   -3.09   0.000   0.200   0.000    0.00
  20.450   10.33   -4.01   -2.40   0.000   0.200   0.000    0.00
  20.500   10.72   -8.45   -2.66   0.000   0.200   0.000    0.00
  20.550    9.94   -5.76   -1.83   0.000   0.200   0.000    0.00
  20.600   10.18  -11.92   -2.52   0.000   0.200   0.000    0.00
  20.650   10.41  -12.08   -2.15   0.000   0.200   0.000    0.00
  20.700    9.88  -16.84   -1.87   0.000   0.200   0.000    0.00
  20.750    9.72  -16.75   -1.77   0.000   0.200   0.000    0.00
  20.800    9.97  -16.87   -1.22   0.000   0.200   0.000    0.00
  20.850   10.75  -20.60   -1.44   0.000   0.200   0.000    0.00
  20.900   10.52  -16.96   -2.09   0.000   0.200   0.000    0.00
  20.950   10.75  -13.07   -1.91   0.000   0.200   0.000    0.00
  21.000   12.00  -11.97   -1.93   0.000   0.200   0.000    0.00
  21.050   11.96   -9.42   -1.99   0.000   0.200   0.000    0.00
  21.100   11.98   -8.99   -1.93   0.000   0.200   0.000    0.00
  21.150   11.79  -10.70   -2.25   0.000   0.200   0.000    0.00
  21.200   11.24  -11.63   -2.16   0.000   0.200   0.000    0.00
  21.250   11.51   -7.73   -2.66   0.000   0.200   0.000    0.00
  21.300   12.15   -8.48   -1.97   0.000   0.200   0.000    0.00
  21.350   11.51  -11.75   -2.43   0.000   0.200   0.000    0.00
  21.400   11.36  -12.65   -2.51   0.000   0.200   0.000    0.00
  21.450   11.19   -9.55   -2.47   0.000   0.200   0.000    0.00
  21.500   11.48  -11.00   -1.87   0.000   0.200   0.000    0.00
  21.550   11.54  -12.66   -1.50   0.000   0.200   0.000    0.00
  21.600   11.83   -9.21   -1.24   0.000   0.200   0.000    0.00
  21.650   11.92   -8.97   -2.35   0.000   0.200   0.000    0.00
  21.700   11.51   -9.25   -2.61   0.000   0.200   0.000    0.00
  21.750   11.94   -7.95   -1.99   0.000   0.200   0.000    0.00
  21.800   12.07   -8.19   -1.57   0.000   0.200   0.000    0.00
  21.850   11.57   -7.75   -2.04   0.000   0.200   0.000    0.00
  21.900   11.20   -5.28   -2.25   0.000   0.200   0.000    0.00
  21.950   10.93   -5.75   -2.09   0.000   0.200   0.000    0.00
  22.000   11.26   -7.42   -2.10   0.000   0.200   0.000    0.00
  22.050   11.37   -4.19   -1.72   0.000   0.200   0.000    0.00
  22.100   11.46   -2.71   -1.90   0.000   0.200   0.000    0.00
  22.150   11.49   -1.49   -2.12   0.000   0.200   0.000    0.00
  22.200   11.65   -2.75   -1.55   0.000   0.200   0.000    0.00
  22.250   11.51   -0.82   -1.30   0.000   0.200   0.000    0.00
  22.300   10.29   -5.84   -1.06   0.000   0.200   0.000    0.00
  22.350   11.04   -6.60   -1.03   0.000   0.200   0.000    0.00