! This hub-height wind-speed file was generated by TurbSim (v1.06.00, 21-Sep-2012) on 03-Feb-2018 at 23:34:58.
!
! The requested statistics for this data were:
!    Mean Total Wind Speed =    5.000 m/s
!    Turbulence Intensity  =   26.180%
!
!   Time  HorSpd  WndDir  VerSpd  HorShr  VerShr  LnVShr  GstSpd
!  (sec)   (m/s)   (deg)   (m/s)     (-)     (-)     (-)   (m/s)
   0.000    6.15   15.28   -0.75   0.000   0.200   0.000    0.00
   0.050    6.13   15.19   -0.76   0.000   0.200   0.000    0.00
   0.100    6.10   13.66   -1.02   0.000   0.200   0.000    0.00
   0.150    6.17   11.94   -1.06   0.000   0.200   0.000    0.00
   0.200    6.23   11.23   -0.99   0.000   0.200   0.000    0.00
   0.250    6.35   12.87   -0.82   0.000   0.200   0.000    0.00
   0.300    6.23   13.08   -0.74   0.000   0.200   0.000    0.00
   0.350    6.33   14.07   -0.68   0.000   0.200   0.000    0.00
   0.400    6.20   15.61   -0.46   0.000   0.200   0.000    0.00
   0.450    5.70   15.34   -0.49   0.000   0.200   0.000    0.00
   0.500    5.59   16.47   -0.52   0.000   0.200   0.000    0.00
   0.550    5.46   15.96   -0.50   0.000   0.200   0.000    0.00
   0.600    5.34   16.13   -0.67   0.000   0.200   0.000    0.00
   0.650    5.21   15.34   -0.48   0.000   0.200   0.000    0.00
   0.700    5.27   17.51   -0.34   0.000   0.200   0.000    0.00
   0.750    5.46   14.50   -0.65   0.000   0.200   0.000    0.00
   0.800    5.44   14.68   -0.91   0.000   0.200   0.000    0.00
   0.850    5.51   15.69   -0.70   0.000   0.200   0.000    0.00
   0.900    5.33   15.57   -0.58   0.000   0.200   0.000    0.00
   0.950    5.26   15.41   -0.65   0.000   0.200   0.000    0.00
   1.000    5.43   13.77   -0.39   0.000   0.200   0.000    0.00
   1.050    5.31   10.63   -0.69   0.000   0.200   0.000    0.00
   1.100    5.10   12.68   -0.58   0.000   0.200   0.000    0.00
   1.150    5.17   12.33   -0.55   0.000   0.200   0.000    0.00
   1.200    5.17   13.66   -0.57   0.000   0.200   0.000    0.00
   1.250    5.03   12.72   -0.69   0.000   0.200   0.000    0.00
   1.300    4.89   12.47   -0.59   0.000   0.200   0.000    0.00
   1.350    5.04   11.71   -0.25   0.000   0.200   0.000    0.00
   1.400    4.84    9.84   -0.41   0.000   0.200   0.000    0.00
   1.450    5.00    8.78   -0.41   0.000   0.200   0.000    0.00
   1.500    5.22    7.94   -0.49   0.000   0.200   0.000    0.00
   1.550    5.30   10.95   -0.83   0.000   0.200   0.000    0.00
   1.600    5.32   13.53   -0.58   0.000   0.200   0.000    0.00
   1.650    4.96   11.42   -0.66   0.000   0.200   0.000    0.00
   1.700    4.86   10.88   -0.69   0.000   0.200   0.000    0.00
   1.750    4.88   11.60   -0.49   0.000   0.200   0.000    0.00
   1.800    4.77   13.12   -0.47   0.000   0.200   0.000    0.00
   1.850    4.81   11.18   -0.74   0.000   0.200   0.000    0.00
   1.900    4.93    9.02   -0.72   0.000   0.200   0.000    0.00
   1.950    5.07   12.34   -0.83   0.000   0.200   0.000    0.00
   2.000    5.42    8.35   -0.62   0.000   0.200   0.000    0.00
   2.050    5.34    2.74   -0.64   0.000   0.200   0.000    0.00
   2.100    5.33    1.92   -0.77   0.000   0.200   0.000    0.00
   2.150    5.37    3.60   -0.84   0.000   0.200   0.000    0.00
   2.200    5.03    2.06   -0.85   0.000   0.200   0.000    0.00
   2.250    5.07    0.14   -1.18   0.000   0.200   0.000    0.00
   2.300    4.95    3.88   -1.27   0.000   0.200   0.000    0.00
   2.350    5.03    3.38   -0.96   0.000   0.200   0.000    0.00
   2.400    5.12   -0.32   -0.82   0.000   0.200   0.000    0.00
   2.450    5.12    0.15   -0.51   0.000   0.200   0.000    0.00
   2.500    5.16    0.87   -0.55   0.000   0.200   0.000    0.00
   2.550    5.08    2.62   -0.71   0.000   0.200   0.000    0.00
   2.600    4.90    0.69   -0.72   0.000   0.200   0.000    0.00
   2.650    4.78   -0.91   -0.57   0.000   0.200   0.000    0.00
   2.700    4.78   -0.69   -0.45   0.000   0.200   0.000    0.00
   2.750    4.85   -3.08   -0.54   0.000   0.200   0.000    0.00
   2.800    4.77   -4.00   -0.38   0.000   0.200   0.000    0.00
   2.850    4.68   -5.37   -0.39   0.000   0.200   0.000    0.00
   2.900    4.81   -2.14   -0.38   0.000   0.200   0.000    0.00
   2.950    4.78   -0.73   -0.19   0.000   0.200   0.000    0.00
   3.000    4.99   -0.30   -0.27   0.000   0.200   0.000    0.00
   3.050    5.07    0.45   -0.31   0.000   0.200   0.000    0.00
   3.100    5.04    5.23   -0.23   0.000   0.200   0.000    0.00
   3.150    5.42    6.21   -0.14   0.000   0.200   0.000    0.00
   3.200    5.58    6.12   -0.43   0.000   0.200   0.000    0.00
   3.250    5.44    6.95   -0.32   0.000   0.200   0.000    0.00
   3.300    5.07    4.02   -0.30   0.000   0.200   0.000    0.00
   3.350    5.20    3.65   -0.44   0.000   0.200   0.000    0.00
   3.400    5.25    2.25   -0.65   0.000   0.200   0.000    0.00
   3.450    4.84    3.62   -0.94   0.000   0.200   0.000    0.00
   3.500    4.72    5.03   -0.90   0.000   0.200   0.000    0.00
   3.550    4.89    4.51   -0.86   0.000   0.200   0.000    0.00
   3.600    4.87    4.45   -1.13   0.000   0.200   0.000    0.00
   3.650    4.96    6.42   -1.04   0.000   0.200   0.000    0.00
   3.700    4.86    7.46   -0.68   0.000   0.200   0.000    0.00
   3.750    4.87    8.56   -0.37   0.000   0.200   0.000    0.00
   3.800    4.96    8.27   -0.23   0.000   0.200   0.000    0.00
   3.850    4.83    5.42   -0.24   0.000   0.200   0.000    0.00
   3.900    4.90    3.45    0.15   0.000   0.200   0.000    0.00
   3.950    4.87   -0.74    0.19   0.000   0.200   0.000    0.00
   4.000    4.91   -1.71    0.11   0.000   0.200   0.000    0.00
   4.050    4.93   -2.07    0.03   0.000   0.200   0.000    0.00
   4.100    4.93   -4.53   -0.14   0.000   0.200   0.000    0.00
   4.150    5.12   -4.89    0.06   0.000   0.200   0.000    0.00
   4.200    5.30   -0.30    0.21   0.000   0.200   0.000    0.00
   4.250    5.67   -3.59    0.14   0.000   0.200   0.000    0.00
   4.300    5.73   -5.07    0.49   0.000   0.200   0.000    0.00
   4.350    5.70   -2.51    0.54   0.000   0.200   0.000    0.00
   4.400    5.38   -4.37    0.46   0.000   0.200   0.000    0.00
   4.450    5.04   -4.41    0.41   0.000   0.200   0.000    0.00
   4.500    5.08   -4.03    0.37   0.000   0.200   0.000    0.00
   4.550    5.22    1.53    0.42   0.000   0.200   0.000    0.00
   4.600    5.22    1.57    0.25   0.000   0.200   0.000    0.00
   4.650    5.22   -2.27    0.17   0.000   0.200   0.000    0.00
   4.700    5.31   -1.87   -0.14   0.000   0.200   0.000    0.00
   4.750    5.67   -1.82    0.04   0.000   0.200   0.000    0.00
   4.800    5.65   -3.87   -0.09   0.000   0.200   0.000    0.00
   4.850    5.35   -4.58    0.02   0.000   0.200   0.000    0.00
   4.900    5.66   -5.39    0.10   0.000   0.200   0.000    0.00
   4.950    5.68   -4.34    0.33   0.000   0.200   0.000    0.00
   5.000    5.57   -3.61    0.30   0.000   0.200   0.000    0.00
   5.050    5.57   -2.24    0.29   0.000   0.200   0.000    0.00
   5.100    5.63   -2.38    0.20   0.000   0.200   0.000    0.00
   5.150    5.38   -3.96    0.07   0.000   0.200   0.000    0.00
   5.200    5.17   -0.25    0.30   0.000   0.200   0.000    0.00
   5.250    5.15    3.62   -0.13   0.000   0.200   0.000    0.00
   5.300    5.20    0.16   -0.19   0.000   0.200   0.000    0.00
   5.350    5.26    2.22   -0.03   0.000   0.200   0.000    0.00
   5.400    5.47    5.13    0.28   0.000   0.200   0.000    0.00
   5.450    5.47    2.75    0.41   0.000   0.200   0.000    0.00
   5.500    5.43    3.37    0.26   0.000   0.200   0.000    0.00
   5.550    5.39    5.00    0.25   0.000   0.200   0.000    0.00
   5.600    5.28    5.28    0.16   0.000   0.200   0.000    0.00
   5.650    5.13    4.64    0.26   0.000   0.200   0.000    0.00
   5.700    5.23    2.31    0.29   0.000   0.200   0.000    0.00
   5.750    5.18   -2.74    0.33   0.000   0.200   0.000    0.00
   5.800    5.39   -3.99    0.50   0.000   0.200   0.000    0.00
   5.850    5.36   -4.62    0.57   0.000   0.200   0.000    0.00
   5.900    5.02   -5.57    0.50   0.000   0.200   0.000    0.00
   5.950    5.04   -7.07    0.30   0.000   0.200   0.000    0.00
   6.000    4.83  -10.97    0.25   0.000   0.200   0.000    0.00
   6.050    4.67   -8.90    0.33   0.000   0.200   0.000    0.00
   6.100    4.76  -10.52    0.39   0.000   0.200   0.000    0.00
   6.150    4.84  -10.43    0.40   0.000   0.200   0.000    0.00
   6.200    4.69   -9.40    0.31   0.000   0.200   0.000    0.00
   6.250    4.54   -9.53    0.35   0.000   0.200   0.000    0.00
   6.300    4.61   -7.21   -0.01   0.000   0.200   0.000    0.00
   6.350    4.56  -10.08    0.17   0.000   0.200   0.000    0.00
   6.400    4.59  -11.99    0.11   0.000   0.200   0.000    0.00
   6.450    4.57   -8.90   -0.01   0.000   0.200   0.000    0.00
   6.500    4.49  -11.30    0.05   0.000   0.200   0.000    0.00
   6.550    4.48  -10.08   -0.09   0.000   0.200   0.000    0.00
   6.600    4.30   -5.79   -0.18   0.000   0.200   0.000    0.00
   6.650    4.44   -5.74   -0.30   0.000   0.200   0.000    0.00
   6.700    4.62   -5.85   -0.36   0.000   0.200   0.000    0.00
   6.750    4.64   -5.76   -0.55   0.000   0.200   0.000    0.00
   6.800    4.61   -5.36   -0.79   0.000   0.200   0.000    0.00
   6.850    4.79   -4.93   -1.00   0.000   0.200   0.000    0.00
   6.900    4.89   -6.40   -0.92   0.000   0.200   0.000    0.00
   6.950    4.67   -7.51   -0.75   0.000   0.200   0.000    0.00
   7.000    4.94   -3.31   -1.04   0.000   0.200   0.000    0.00
   7.050    4.70   -7.95   -1.12   0.000   0.200   0.000    0.00
   7.100    4.50   -8.37   -1.01   0.000   0.200   0.000    0.00
   7.150    4.68   -9.58   -0.91   0.000   0.200   0.000    0.00
   7.200    4.65  -11.60   -1.06   0.000   0.200   0.000    0.00
   7.250    4.65  -13.54   -1.01   0.000   0.200   0.000    0.00
   7.300    4.82  -15.30   -0.79   0.000   0.200   0.000    0.00
   7.350    4.57  -13.08   -0.85   0.000   0.200   0.000    0.00
   7.400    4.63  -16.70   -0.68   0.000   0.200   0.000    0.00
   7.450    4.43  -17.14   -1.10   0.000   0.200   0.000    0.00
   7.500    4.86  -15.18   -1.12   0.000   0.200   0.000    0.00
   7.550    4.77  -11.96   -1.11   0.000   0.200   0.000    0.00
   7.600    4.90  -10.90   -0.69   0.000   0.200   0.000    0.00
   7.650    4.94  -11.06   -0.71   0.000   0.200   0.000    0.00
   7.700    4.72   -8.16   -0.57   0.000   0.200   0.000    0.00
   7.750    4.67   -7.83   -0.47   0.000   0.200   0.000    0.00
   7.800    4.67   -6.03   -0.49   0.000   0.200   0.000    0.00
   7.850    4.80   -4.14   -0.71   0.000   0.200   0.000    0.00
   7.900    4.72   -5.89   -0.60   0.000   0.200   0.000    0.00
   7.950    4.52   -2.56   -0.89   0.000   0.200   0.000    0.00
   8.000    4.58   -3.80   -0.82   0.000   0.200   0.000    0.00
   8.050    4.76   -2.99   -0.68   0.000   0.200   0.000    0.00
   8.100    4.61   -4.13   -0.84   0.000   0.200   0.000    0.00
   8.150    4.71   -2.63   -0.75   0.000   0.200   0.000    0.00
   8.200    4.59    2.90   -0.79   0.000   0.200   0.000    0.00
   8.250    4.56    3.90   -0.22   0.000   0.200   0.000    0.00
   8.300    4.67    3.53    0.00   0.000   0.200   0.000    0.00
   8.350    4.77    2.67    0.01   0.000   0.200   0.000    0.00
   8.400    5.00    2.32   -0.15   0.000   0.200   0.000    0.00
   8.450    5.28    0.23   -0.24   0.000   0.200   0.000    0.00
   8.500    5.30    2.70   -0.40   0.000   0.200   0.000    0.00
   8.550    5.25    1.11   -0.71   0.000   0.200   0.000    0.00
   8.600    5.49    1.24   -0.65   0.000   0.200   0.000    0.00
   8.650    5.51    3.06   -0.73   0.000   0.200   0.000    0.00
   8.700    5.42    4.92   -0.42   0.000   0.200   0.000    0.00
   8.750    5.08    3.83   -0.24   0.000   0.200   0.000    0.00
   8.800    5.10    1.96   -0.23   0.000   0.200   0.000    0.00
   8.850    5.38    0.75   -0.63   0.000   0.200   0.000    0.00
   8.900    5.42   -0.11   -0.63   0.000   0.200   0.000    0.00
   8.950    5.40    0.84   -0.49   0.000   0.200   0.000    0.00
   9.000    5.61    0.48   -0.54   0.000   0.200   0.000    0.00
   9.050    5.52    1.90   -0.40   0.000   0.200   0.000    0.00
   9.100    5.47    4.64   -0.24   0.000   0.200   0.000    0.00
   9.150    5.34    5.68   -0.02   0.000   0.200   0.000    0.00
   9.200    5.45    5.22   -0.05   0.000   0.200   0.000    0.00
   9.250    5.58    5.88   -0.29   0.000   0.200   0.000    0.00
   9.300    5.66    3.88   -0.23   0.000   0.200   0.000    0.00
   9.350    5.62    1.97   -0.14   0.000   0.200   0.000    0.00
   9.400    5.75    2.43   -0.30   0.000   0.200   0.000    0.00
   9.450    5.93    3.98   -0.30   0.000   0.200   0.000    0.00
   9.500    6.16    4.35   -0.75   0.000   0.200   0.000    0.00
   9.550    6.10    6.40   -1.35   0.000   0.200   0.000    0.00
   9.600    6.01    4.49   -1.17   0.000   0.200   0.000    0.00
   9.650    6.13    1.86   -1.06   0.000   0.200   0.000    0.00
   9.700    6.32    2.70   -1.16   0.000   0.200   0.000    0.00
   9.750    6.16    2.68   -1.29   0.000   0.200   0.000    0.00
   9.800    5.78    0.59   -1.30   0.000   0.200   0.000    0.00
   9.850    5.69    2.77   -1.47   0.000   0.200   0.000    0.00
   9.900    5.43    3.33   -1.71   0.000   0.200   0.000    0.00
   9.950    5.46    5.83   -1.48   0.000   0.200   0.000    0.00
  10.000    5.24    3.88   -1.30   0.000   0.200   0.000    0.00
  10.050    5.36    4.59   -1.17   0.000   0.200   0.000    0.00
  10.100    5.37    2.09   -0.94   0.000   0.200   0.000    0.00
  10.150    5.39    1.23   -0.97   0.000   0.200   0.000    0.00
  10.200    5.49    1.55   -1.09   0.000   0.200   0.000    0.00
  10.250    5.36    5.09   -0.87   0.000   0.200   0.000    0.00
  10.300    5.32    7.37   -0.90   0.000   0.200   0.000    0.00
  10.350    5.19    3.61   -1.38   0.000   0.200   0.000    0.00
  10.400    5.02    0.57   -0.86   0.000   0.200   0.000    0.00
  10.450    5.05   -3.52   -0.88   0.000   0.200   0.000    0.00
  10.500    4.98   -6.23   -0.92   0.000   0.200   0.000    0.00
  10.550    5.35   -4.42   -1.15   0.000   0.200   0.000    0.00
  10.600    5.86   -1.27   -1.18   0.000   0.200   0.000    0.00
  10.650    6.04   -0.67   -1.28   0.000   0.200   0.000    0.00
  10.700    5.79   -1.07   -1.19   0.000   0.200   0.000    0.00
  10.750    5.63    0.32   -1.28   0.000   0.200   0.000    0.00
  10.800    5.79    2.94   -1.48   0.000   0.200   0.000    0.00
  10.850    5.94    3.26   -1.17   0.000   0.200   0.000    0.00
  10.900    5.87    2.41   -0.92   0.000   0.200   0.000    0.00
  10.950    5.83    3.69   -1.07   0.000   0.200   0.000    0.00
  11.000    5.93    3.76   -1.09   0.000   0.200   0.000    0.00
  11.050    5.68    1.98   -1.23   0.000   0.200   0.000    0.00
  11.100    5.75   -0.07   -1.25   0.000   0.200   0.000    0.00
  11.150    5.64   -0.51   -1.09   0.000   0.200   0.000    0.00
  11.200    5.71   -1.51   -1.19   0.000   0.200   0.000    0.00
  11.250    5.56   -0.02   -1.08   0.000   0.200   0.000    0.00
  11.300    5.53   -0.45   -0.94   0.000   0.200   0.000    0.00
  11.350    5.82    1.36   -1.13   0.000   0.200   0.000    0.00
  11.400    5.69    0.82   -0.63   0.000   0.200   0.000    0.00
  11.450    5.64    0.78   -0.71   0.000   0.200   0.000    0.00
  11.500    5.80    3.09   -0.77   0.000   0.200   0.000    0.00
  11.550    5.76    4.08   -0.74   0.000   0.200   0.000    0.00
  11.600    5.71    1.19   -0.85   0.000   0.200   0.000    0.00
  11.650    5.87    0.08   -0.85   0.000   0.200   0.000    0.00
  11.700    5.86   -4.32   -0.95   0.000   0.200   0.000    0.00
  11.750    5.89   -3.53   -0.96   0.000   0.200   0.000    0.00
  11.800    5.84   -3.68   -1.27   0.000   0.200   0.000    0.00
  11.850    5.79   -3.54   -1.63   0.000   0.200   0.000    0.00
  11.900    5.61   -2.13   -1.45   0.000   0.200   0.000    0.00
  11.950    5.45    0.94   -1.35   0.000   0.200   0.000    0.00
  12.000    5.78   -0.01   -1.32   0.000   0.200   0.000    0.00
  12.050    5.85    1.38   -1.32   0.000   0.200   0.000    0.00
  12.100    5.89    3.46   -1.65   0.000   0.200   0.000    0.00
  12.150    5.96    3.62   -1.60   0.000   0.200   0.000    0.00
  12.200    5.89    2.32   -1.63   0.000   0.200   0.000    0.00
  12.250    6.04    2.37   -1.52   0.000   0.200   0.000    0.00
  12.300    6.06    6.00   -1.29   0.000   0.200   0.000    0.00
  12.350    5.93    5.75   -0.97   0.000   0.200   0.000    0.00
  12.400    6.07    6.30   -0.77   0.000   0.200   0.000    0.00
  12.450    6.06    5.14   -0.63   0.000   0.200   0.000    0.00
  12.500    6.02    5.02   -0.70   0.000   0.200   0.000    0.00
  12.550    5.87    2.70   -0.74   0.000   0.200   0.000    0.00
  12.600    5.93    2.57   -0.80   0.000   0.200   0.000    0.00
  12.650    6.07    0.64   -0.73   0.000   0.200   0.000    0.00
  12.700    6.01    1.21   -0.74   0.000   0.200   0.000    0.00
  12.750    5.92    2.27   -0.88   0.000   0.200   0.000    0.00
  12.800    6.01    2.66   -0.99   0.000   0.200   0.000    0.00
  12.850    5.92    0.24   -0.98   0.000   0.200   0.000    0.00
  12.900    5.79   -3.05   -1.59   0.000   0.200   0.000    0.00
  12.950    6.00   -3.35   -1.47   0.000   0.200   0.000    0.00
  13.000    6.00   -3.66   -1.52   0.000   0.200   0.000    0.00
  13.050    5.84   -2.17   -1.63   0.000   0.200   0.000    0.00
  13.100    5.74    0.12   -1.65   0.000   0.200   0.000    0.00
  13.150    5.69    0.09   -1.25   0.000   0.200   0.000    0.00
  13.200    5.46   -0.55   -1.26   0.000   0.200   0.000    0.00
  13.250    5.53   -0.11   -1.34   0.000   0.200   0.000    0.00
  13.300    5.30    2.40   -1.23   0.000   0.200   0.000    0.00
  13.350    4.98    2.01   -1.42   0.000   0.200   0.000    0.00
  13.400    5.22    5.04   -1.40   0.000   0.200   0.000    0.00
  13.450    5.22    5.57   -1.18   0.000   0.200   0.000    0.00
  13.500    5.27    6.44   -0.89   0.000   0.200   0.000    0.00
  13.550    5.52    6.52   -0.70   0.000   0.200   0.000    0.00
  13.600    5.45    5.50   -0.59   0.000   0.200   0.000    0.00
  13.650    5.51    6.52   -0.67   0.000   0.200   0.000    0.00
  13.700    5.70    4.29   -0.93   0.000   0.200   0.000    0.00
  13.750    5.91    5.40   -0.88   0.000   0.200   0.000    0.00
  13.800    5.83    7.28   -0.60   0.000   0.200   0.000    0.00
  13.850    5.84    5.09   -0.72   0.000   0.200   0.000    0.00
  13.900    5.87    5.68   -0.80   0.000   0.200   0.000    0.00
  13.950    5.89    4.86   -0.85   0.000   0.200   0.000    0.00
  14.000    5.79    6.44   -0.99   0.000   0.200   0.000    0.00
  14.050    5.70    5.75   -1.04   0.000   0.200   0.000    0.00
  14.100    5.71    3.30   -0.99   0.000   0.200   0.000    0.00
  14.150    5.64    1.02   -0.99   0.000   0.200   0.000    0.00
  14.200    5.60    2.79   -1.11   0.000   0.200   0.000    0.00
  14.250    5.53    1.51   -0.82   0.000   0.200   0.000    0.00
  14.300    5.41    1.88   -0.71   0.000   0.200   0.000    0.00
  14.350    5.36    5.77   -0.54   0.000   0.200   0.000    0.00
  14.400    5.36    5.71   -0.69   0.000   0.200   0.000    0.00
  14.450    5.49    8.15   -0.66   0.000   0.200   0.000    0.00
  14.500    5.59    7.41   -0.73   0.000   0.200   0.000    0.00
  14.550    5.59    7.40   -0.74   0.000   0.200   0.000    0.00
  14.600    5.66    6.83   -0.63   0.000   0.200   0.000    0.00
  14.650    5.62    6.20   -0.69   0.000   0.200   0.000    0.00
  14.700    5.64    8.34   -0.93   0.000   0.200   0.000    0.00
  14.750    5.65    9.58   -0.50   0.000   0.200   0.000    0.00
  14.800    5.83    9.02   -0.39   0.000   0.200   0.000    0.00
  14.850    5.79    8.64   -0.28   0.000   0.200   0.000    0.00
  14.900    5.47    8.10   -0.64   0.000   0.200   0.000    0.00
  14.950    5.68    7.86   -0.88   0.000   0.200   0.000    0.00
  15.000    5.47    5.85   -0.68   0.000   0.200   0.000    0.00
  15.050    5.54    8.87   -0.69   0.000   0.200   0.000    0.00
  15.100    5.59    8.82   -1.23   0.000   0.200   0.000    0.00
  15.150    5.44   13.16   -1.21   0.000   0.200   0.000    0.00
  15.200    5.37   12.04   -1.22   0.000   0.200   0.000    0.00
  15.250    5.56   14.62   -1.47   0.000   0.200   0.000    0.00
  15.300    5.63   15.75   -1.47   0.000   0.200   0.000    0.00
  15.350    5.50   15.85   -1.14   0.000   0.200   0.000    0.00
  15.400    5.60   14.52   -1.03   0.000   0.200   0.000    0.00
  15.450    5.72   14.03   -0.68   0.000   0.200   0.000    0.00
  15.500    5.65   12.55   -0.83   0.000   0.200   0.000    0.00
  15.550    5.61   11.78   -1.14   0.000   0.200   0.000    0.00
  15.600    5.58   10.52   -1.26   0.000   0.200   0.000    0.00
  15.650    5.29   11.29   -1.44   0.000   0.200   0.000    0.00
  15.700    5.18   12.44   -1.42   0.000   0.200   0.000    0.00
  15.750    5.52   13.39   -1.44   0.000   0.200   0.000    0.00
  15.800    5.45   13.55   -1.28   0.000   0.200   0.000    0.00
  15.850    5.64   12.97   -1.29   0.000   0.200   0.000    0.00
  15.900    5.41   11.67   -1.38   0.000   0.200   0.000    0.00
  15.950    5.66    7.82   -1.41   0.000   0.200   0.000    0.00
  16.000    5.81    5.88   -1.39   0.000   0.200   0.000    0.00
  16.050    5.76    5.95   -1.60   0.000   0.200   0.000    0.00
  16.100    5.80    7.13   -1.44   0.000   0.200   0.000    0.00
  16.150    5.72    2.02   -1.46   0.000   0.200   0.000    0.00
  16.200    5.70    0.79   -1.41   0.000   0.200   0.000    0.00
  16.250    5.81    0.98   -1.73   0.000   0.200   0.000    0.00
  16.300    5.62    0.87   -1.78   0.000   0.200   0.000    0.00
  16.350    5.78    4.34   -1.69   0.000   0.200   0.000    0.00
  16.400    5.97    4.57   -1.74   0.000   0.200   0.000    0.00
  16.450    5.87    3.84   -1.73   0.000   0.200   0.000    0.00
  16.500    6.06    3.79   -1.65   0.000   0.200   0.000    0.00
  16.550    6.25    3.55   -1.53   0.000   0.200   0.000    0.00
  16.600    6.34    2.84   -1.50   0.000   0.200   0.000    0.00
  16.650    6.18    0.56   -1.46   0.000   0.200   0.000    0.00
  16.700    6.17    1.64   -1.54   0.000   0.200   0.000    0.00
  16.750    6.42    4.22   -1.66   0.000   0.200   0.000    0.00
  16.800    6.48    3.19   -1.72   0.000   0.200   0.000    0.00
  16.850    6.21    2.59   -1.48   0.000   0.200   0.000    0.00
  16.900    6.29    4.45   -1.29   0.000   0.200   0.000    0.00
  16.950    6.41    2.39   -1.18   0.000   0.200   0.000    0.00
  17.000    6.62    2.15   -1.15   0.000   0.200   0.000    0.00
  17.050    6.35    3.76   -0.51   0.000   0.200   0.000    0.00
  17.100    6.38    1.46   -0.60   0.000   0.200   0.000    0.00
  17.150    6.15    0.93   -0.67   0.000   0.200   0.000    0.00
  17.200    6.20    0.74   -0.22   0.000   0.200   0.000    0.00
  17.250    5.81    1.54   -0.46   0.000   0.200   0.000    0.00
  17.300    5.73    3.69   -0.54   0.000   0.200   0.000    0.00
  17.350    5.75    2.24   -0.16   0.000   0.200   0.000    0.00
  17.400    5.81    3.61    0.00   0.000   0.200   0.000    0.00
  17.450    5.88    4.82    0.11   0.000   0.200   0.000    0.00
  17.500    5.77    5.43    0.06   0.000   0.200   0.000    0.00
  17.550    5.84    5.94    0.13   0.000   0.200   0.000    0.00
  17.600    6.25    8.57    0.09   0.000   0.200   0.000    0.00
  17.650    6.25    7.50   -0.05   0.000   0.200   0.000    0.00
  17.700    6.32    6.04   -0.07   0.000   0.200   0.000    0.00
  17.750    6.42    7.64   -0.17   0.000   0.200   0.000    0.00
  17.800    6.19    9.76   -0.15   0.000   0.200   0.000    0.00
  17.850    6.19    9.48   -0.25   0.000   0.200   0.000    0.00
  17.900    6.15   10.30   -0.36   0.000   0.200   0.000    0.00
  17.950    6.14   12.29   -0.12   0.000   0.200   0.000    0.00
  18.000    6.25   12.96   -0.05   0.000   0.200   0.000    0.00
  18.050    6.43   12.70   -0.25   0.000   0.200   0.000    0.00
  18.100    6.35   10.81   -0.04   0.000   0.200   0.000    0.00
  18.150    6.44   13.84    0.30   0.000   0.200   0.000    0.00
  18.200    6.56   14.01    0.18   0.000   0.200   0.000    0.00
  18.250    6.69   14.60    0.24   0.000   0.200   0.000    0.00
  18.300    6.62   12.83    0.31   0.000   0.200   0.000    0.00
  18.350    6.55   13.51    0.09   0.000   0.200   0.000    0.00
  18.400    6.51   15.07    0.00   0.000   0.200   0.000    0.00
  18.450    6.42   14.21    0.08   0.000   0.200   0.000    0.00
  18.500    6.58   13.88   -0.05   0.000   0.200   0.000    0.00
  18.550    6.48   13.75   -0.30   0.000   0.200   0.000    0.00
  18.600    6.64   14.50   -0.19   0.000   0.200   0.000    0.00
  18.650    6.43   12.73   -0.20   0.000   0.200   0.000    0.00
  18.700    6.41   11.16   -0.24   0.000   0.200   0.000    0.00
  18.750    6.12   12.07   -0.25   0.000   0.200   0.000    0.00
  18.800    5.98   11.40   -0.40   0.000   0.200   0.000    0.00
  18.850    6.11   10.04   -0.40   0.000   0.200   0.000    0.00
  18.900    6.25    9.92   -0.51   0.000   0.200   0.000    0.00
  18.950    6.41    9.24   -0.19   0.000   0.200   0.000    0.00
  19.000    6.50    6.65   -0.21   0.000   0.200   0.000    0.00
  19.050    6.21    6.57   -0.41   0.000   0.200   0.000    0.00
  19.100    6.27    7.90   -0.62   0.000   0.200   0.000    0.00
  19.150    6.32    4.70   -0.61   0.000   0.200   0.000    0.00
  19.200    6.80    5.05   -0.36   0.000   0.200   0.000    0.00
  19.250    6.83    5.17   -0.09   0.000   0.200   0.000    0.00
  19.300    6.63    6.61    0.07   0.000   0.200   0.000    0.00
  19.350    6.49    3.91   -0.17   0.000   0.200   0.000    0.00
  19.400    6.45    4.43   -0.07   0.000   0.200   0.000    0.00
  19.450    6.66    6.11   -0.11   0.000   0.200   0.000    0.00
  19.500    6.82    7.01   -0.01   0.000   0.200   0.000    0.00
  19.550    6.91    7.00   -0.01   0.000   0.200   0.000    0.00
  19.600    7.06    6.37   -0.06   0.000   0.200   0.000    0.00
  19.650    7.01    6.24    0.17   0.000   0.200   0.000    0.00
  19.700    6.88    6.40   -0.07   0.000   0.200   0.000    0.00
  19.750    6.89    7.16   -0.09   0.000   0.200   0.000    0.00
  19.800    7.03    5.81   -0.01   0.000   0.200   0.000    0.00
  19.850    7.35    7.70   -0.13   0.000   0.200   0.000    0.00
  19.900    7.37    7.98   -0.17   0.000   0.200   0.000    0.00
  19.950    7.47    7.99   -0.04   0.000   0.200   0.000    0.00
  20.000    7.38   10.14   -0.28   0.000   0.200   0.000    0.00
  20.050    7.29   12.59   -0.28   0.000   0.200   0.000    0.00
  20.100    7.19   12.74   -0.21   0.000   0.200   0.000    0.00
  20.150    7.32   12.11    0.05   0.000   0.200   0.000    0.00
  20.200    7.55   11.28   -0.07   0.000   0.200   0.000    0.00
  20.250    7.32   10.66    0.04   0.000   0.200   0.000    0.00
  20.300    7.42   11.23    0.09   0.000   0.200   0.000    0.00
  20.350    7.38   11.22   -0.06   0.000   0.200   0.000    0.00
  20.400    7.69   12.17   -0.02   0.000   0.200   0.000    0.00
  20.450    7.88   11.04   -0.18   0.000   0.200   0.000    0.00
  20.500    7.94   10.42    0.01   0.000   0.200   0.000    0.00
  20.550    8.03    8.47   -0.24   0.000   0.200   0.000    0.00
  20.600    8.08    8.69   -0.53   0.000   0.200   0.000    0.00
  20.650    8.26    9.21   -0.32   0.000   0.200   0.000    0.00
  20.700    8.20    8.64    0.02   0.000   0.200   0.000    0.00
  20.750    8.07    9.93    0.20   0.000   0.200   0.000    0.00
  20.800    7.72    7.42   -0.10   0.000   0.200   0.000    0.00
  20.850    7.57    5.49   -0.23   0.000   0.200   0.000    0.00
  20.900    7.91    6.73   -0.24   0.000   0.200   0.000    0.00
  20.950    7.85    5.59   -0.10   0.000   0.200   0.000    0.00
  21.000    7.82    7.81    0.10   0.000   0.200   0.000    0.00
  21.050    7.82    8.93   -0.07   0.000   0.200   0.000    0.00
  21.100    7.94    7.57   -0.16   0.000   0.200   0.000    0.00
  21.150    7.77    6.77   -0.45   0.000   0.200   0.000    0.00
  21.200    7.77    6.45   -0.42   0.000   0.200   0.000    0.00
  21.250    8.01    6.49   -0.26   0.000   0.200   0.000    0.00
  21.300    7.97    5.74   -0.01   0.000   0.200   0.000    0.00
  21.350    7.79    6.01   -0.19   0.000   0.200   0.000    0.00
  21.400    7.82    4.44   -0.23   0.000   0.200   0.000    0.00
  21.450    7.71    3.71   -0.09   0.000   0.200   0.000    0.00
  21.500    7.74    4.46   -0.09   0.000   0.200   0.000    0.00
  21.550    7.72    5.62   -0.08   0.000   0.200   0.000    0.00
  21.600    7.74    5.95    0.28   0.000   0.200   0.000    0.00
  21.650    7.67    7.83    0.35   0.000   0.200   0.000    0.00
  21.700    7.53    8.99    0.33   0.000   0.200   0.000    0.00
  21.750    7.62   11.76    0.27   0.000   0.200   0.000    0.00
  21.800    7.90   14.72    0.36   0.000   0.200   0.000    0.00
  21.850    7.95   13.22    0.39   0.000   0.200   0.000    0.00
  21.900    7.48   12.29    0.44   0.000   0.200   0.000    0.00
  21.950    7.69   13.54    0.52   0.000   0.200   0.000    0.00
  22.000    7.66   13.26    0.65   0.000   0.200   0.000    0.00
  22.050    7.75   12.68    0.74   0.000   0.200   0.000    0.00
  22.100    7.86   12.15    0.48   0.000   0.200   0.000    0.00
  22.150    7.76   12.07    0.09   0.000   0.200   0.000    0.00
  22.200    7.74   11.13    0.18   0.000   0.200   0.000    0.00
  22.250    7.65   11.60    0.31   0.000   0.200   0.000    0.00
  22.300    7.58   11.25    0.09   0.000   0.200   0.000    0.00
  22.350    7.44   11.92    0.08   0.000   0.200   0.000    0.00