! This hub-height wind-speed file was generated by TurbSim (v1.06.00, 21-Sep-2012) on 03-Feb-2018 at 23:29:19.
!
! The requested statistics for this data were:
!    Mean Total Wind Speed =   21.000 m/s
!    Turbulence Intensity  =   14.233%
!
!   Time  HorSpd  WndDir  VerSpd  HorShr  VerShr  LnVShr  GstSpd
!  (sec)   (m/s)   (deg)   (m/s)     (-)     (-)     (-)   (m/s)
   0.000   20.95    2.33   -2.59   0.000   0.200   0.000    0.00
   0.050   19.83    1.98   -2.50   0.000   0.200   0.000    0.00
   0.100   19.72    3.07   -2.17   0.000   0.200   0.000    0.00
   0.150   19.57    2.71   -2.18   0.000   0.200   0.000    0.00
   0.200   19.92    3.33   -1.61   0.000   0.200   0.000    0.00
   0.250   20.66    2.69   -1.13   0.000   0.200   0.000    0.00
   0.300   20.33    2.68   -2.06   0.000   0.200   0.000    0.00
   0.350   20.08    1.46   -2.15   0.000   0.200   0.000    0.00
   0.400   21.02    3.96   -1.14   0.000   0.200   0.000    0.00
   0.450   21.14    4.00   -0.58   0.000   0.200   0.000    0.00
   0.500   20.45    4.05   -1.13   0.000   0.200   0.000    0.00
   0.550   20.22    3.72   -1.83   0.000   0.200   0.000    0.00
   0.600   20.25    2.12   -1.72   0.000   0.200   0.000    0.00
   0.650   19.62    4.71   -2.17   0.000   0.200   0.000    0.00
   0.700   19.66    8.40   -2.03   0.000   0.200   0.000    0.00
   0.750   19.50    6.71   -1.48   0.000   0.200   0.000    0.00
   0.800   20.17    7.56   -0.70   0.000   0.200   0.000    0.00
   0.850   20.39    8.17   -1.52   0.000   0.200   0.000    0.00
   0.900   20.47    7.16   -1.66   0.000   0.200   0.000    0.00
   0.950   20.36    4.48   -1.52   0.000   0.200   0.000    0.00
   1.000   20.40    2.91   -2.09   0.000   0.200   0.000    0.00
   1.050   21.32    4.51   -1.53   0.000   0.200   0.000    0.00
   1.100   21.25    3.49   -1.91   0.000   0.200   0.000    0.00
   1.150   21.13    6.02   -1.54   0.000   0.200   0.000    0.00
   1.200   21.51    4.27   -1.71   0.000   0.200   0.000    0.00
   1.250   21.06    3.24   -2.59   0.000   0.200   0.000    0.00
   1.300   20.72    4.71   -2.31   0.000   0.200   0.000    0.00
   1.350   21.05    3.09   -2.42   0.000   0.200   0.000    0.00
   1.400   21.51    6.79   -2.34   0.000   0.200   0.000    0.00
   1.450   22.02    3.55   -1.82   0.000   0.200   0.000    0.00
   1.500   22.36    4.39   -2.47   0.000   0.200   0.000    0.00
   1.550   22.06    2.25   -2.13   0.000   0.200   0.000    0.00
   1.600   21.81    0.63   -1.88   0.000   0.200   0.000    0.00
   1.650   21.16    0.83   -2.52   0.000   0.200   0.000    0.00
   1.700   21.75    2.86   -2.78   0.000   0.200   0.000    0.00
   1.750   21.31    1.38   -2.55   0.000   0.200   0.000    0.00
   1.800   21.43   -0.22   -3.02   0.000   0.200   0.000    0.00
   1.850   20.94    1.89   -3.40   0.000   0.200   0.000    0.00
   1.900   21.13    1.80   -2.84   0.000   0.200   0.000    0.00
   1.950   21.22   -1.00   -2.22   0.000   0.200   0.000    0.00
   2.000   20.72   -2.45   -1.41   0.000   0.200   0.000    0.00
   2.050   20.53   -2.83   -2.21   0.000   0.200   0.000    0.00
   2.100   22.12   -1.84   -1.28   0.000   0.200   0.000    0.00
   2.150   21.73    1.25   -1.06   0.000   0.200   0.000    0.00
   2.200   20.65    4.23   -1.17   0.000   0.200   0.000    0.00
   2.250   20.07    2.53   -1.83   0.000   0.200   0.000    0.00
   2.300   20.50    5.88   -2.33   0.000   0.200   0.000    0.00
   2.350   20.12    7.73   -2.77   0.000   0.200   0.000    0.00
   2.400   19.70   10.48   -2.89   0.000   0.200   0.000    0.00
   2.450   20.23   13.32   -2.28   0.000   0.200   0.000    0.00
   2.500   19.43    9.20   -2.41   0.000   0.200   0.000    0.00
   2.550   18.79    9.94   -2.59   0.000   0.200   0.000    0.00
   2.600   20.26   11.73   -2.57   0.000   0.200   0.000    0.00
   2.650   20.42   10.53   -2.37   0.000   0.200   0.000    0.00
   2.700   20.10    9.48   -2.63   0.000   0.200   0.000    0.00
   2.750   19.34    9.83   -2.72   0.000   0.200   0.000    0.00
   2.800   18.72    9.60   -2.07   0.000   0.200   0.000    0.00
   2.850   19.43    4.56   -2.92   0.000   0.200   0.000    0.00
   2.900   20.31    4.19   -3.56   0.000   0.200   0.000    0.00
   2.950   20.53    4.85   -3.02   0.000   0.200   0.000    0.00
   3.000   20.78    5.97   -3.20   0.000   0.200   0.000    0.00
   3.050   21.44    7.67   -3.36   0.000   0.200   0.000    0.00
   3.100   20.34    9.24   -2.46   0.000   0.200   0.000    0.00
   3.150   19.72    7.79   -1.57   0.000   0.200   0.000    0.00
   3.200   19.67    8.44   -2.47   0.000   0.200   0.000    0.00
   3.250   19.74    6.14   -2.86   0.000   0.200   0.000    0.00
   3.300   18.10    4.36   -3.22   0.000   0.200   0.000    0.00
   3.350   18.78    4.89   -3.34   0.000   0.200   0.000    0.00
   3.400   19.51    5.80   -3.31   0.000   0.200   0.000    0.00
   3.450   19.19    5.58   -2.89   0.000   0.200   0.000    0.00
   3.500   19.42    5.33   -2.96   0.000   0.200   0.000    0.00
   3.550   19.05    7.40   -3.02   0.000   0.200   0.000    0.00
   3.600   19.04    9.07   -3.40   0.000   0.200   0.000    0.00
   3.650   18.81   12.61   -2.69   0.000   0.200   0.000    0.00
   3.700   18.51   15.19   -1.94   0.000   0.200   0.000    0.00
   3.750   17.97   12.72   -0.45   0.000   0.200   0.000    0.00
   3.800   17.39   14.44   -1.09   0.000   0.200   0.000    0.00
   3.850   17.47   12.62    0.00   0.000   0.200   0.000    0.00
   3.900   17.15   11.51    0.66   0.000   0.200   0.000    0.00
   3.950   17.51   13.41    0.39   0.000   0.200   0.000    0.00
   4.000   17.75    8.71    0.63   0.000   0.200   0.000    0.00
   4.050   17.89   10.09    1.67   0.000   0.200   0.000    0.00
   4.100   17.25   11.78    1.64   0.000   0.200   0.000    0.00
   4.150   17.32    8.98    1.65   0.000   0.200   0.000    0.00
   4.200   18.12    7.02    1.70   0.000   0.200   0.000    0.00
   4.250   18.13    9.20    1.45   0.000   0.200   0.000    0.00
   4.300   17.49    9.79    2.06   0.000   0.200   0.000    0.00
   4.350   16.70    6.79    1.71   0.000   0.200   0.000    0.00
   4.400   17.10    8.52    1.67   0.000   0.200   0.000    0.00
   4.450   17.76    7.02    0.68   0.000   0.200   0.000    0.00
   4.500   18.17    5.02    0.12   0.000   0.200   0.000    0.00
   4.550   17.56    4.36    0.70   0.000   0.200   0.000    0.00
   4.600   18.57    5.35    0.91   0.000   0.200   0.000    0.00
   4.650   18.58    0.59    0.33   0.000   0.200   0.000    0.00
   4.700   18.24    0.80    0.35   0.000   0.200   0.000    0.00
   4.750   16.85    0.74    0.75   0.000   0.200   0.000    0.00
   4.800   17.03   -3.22    0.27   0.000   0.200   0.000    0.00
   4.850   16.92   -4.70   -0.96   0.000   0.200   0.000    0.00
   4.900   16.68   -4.18   -0.74   0.000   0.200   0.000    0.00
   4.950   17.32    2.69   -0.27   0.000   0.200   0.000    0.00
   5.000   18.17    2.85   -0.86   0.000   0.200   0.000    0.00
   5.050   17.95    5.28   -0.07   0.000   0.200   0.000    0.00
   5.100   17.34    7.69   -0.80   0.000   0.200   0.000    0.00
   5.150   17.85    5.29   -1.16   0.000   0.200   0.000    0.00
   5.200   18.19    5.47   -0.23   0.000   0.200   0.000    0.00
   5.250   18.09    4.03   -0.03   0.000   0.200   0.000    0.00
   5.300   18.19    3.25    0.45   0.000   0.200   0.000    0.00
   5.350   18.28    6.54   -0.77   0.000   0.200   0.000    0.00
   5.400   17.62    4.70   -1.31   0.000   0.200   0.000    0.00
   5.450   17.65    9.33   -0.83   0.000   0.200   0.000    0.00
   5.500   17.36   13.39   -1.59   0.000   0.200   0.000    0.00
   5.550   17.76   15.27   -1.83   0.000   0.200   0.000    0.00
   5.600   17.63   16.63   -1.41   0.000   0.200   0.000    0.00
   5.650   17.04   13.28   -0.55   0.000   0.200   0.000    0.00
   5.700   15.75   14.06   -0.68   0.000   0.200   0.000    0.00
   5.750   15.81   12.21   -0.83   0.000   0.200   0.000    0.00
   5.800   16.56   14.23   -1.41   0.000   0.200   0.000    0.00
   5.850   16.32   14.61   -0.31   0.000   0.200   0.000    0.00
   5.900   16.96   12.44    0.78   0.000   0.200   0.000    0.00
   5.950   16.64    9.18    0.46   0.000   0.200   0.000    0.00
   6.000   15.93    5.95    0.16   0.000   0.200   0.000    0.00
   6.050   16.08    5.34    0.56   0.000   0.200   0.000    0.00
   6.100   15.65    5.66    0.93   0.000   0.200   0.000    0.00
   6.150   15.83    2.59   -0.46   0.000   0.200   0.000    0.00
   6.200   16.58   -0.75    0.86   0.000   0.200   0.000    0.00
   6.250   16.35    1.80    1.29   0.000   0.200   0.000    0.00
   6.300   16.46    2.81    0.58   0.000   0.200   0.000    0.00
   6.350   16.08   -2.21   -0.49   0.000   0.200   0.000    0.00
   6.400   16.70   -1.48   -0.50   0.000   0.200   0.000    0.00
   6.450   16.65   -2.19   -0.72   0.000   0.200   0.000    0.00
   6.500   17.00   -1.63   -0.56   0.000   0.200   0.000    0.00
   6.550   17.11    1.48   -0.30   0.000   0.200   0.000    0.00
   6.600   16.91    1.37   -0.73   0.000   0.200   0.000    0.00
   6.650   16.98   -1.64   -0.15   0.000   0.200   0.000    0.00
   6.700   17.10   -1.98   -0.57   0.000   0.200   0.000    0.00
   6.750   16.70   -1.16   -0.89   0.000   0.200   0.000    0.00
   6.800   17.14   -2.09   -0.24   0.000   0.200   0.000    0.00
   6.850   16.40    0.50   -0.92   0.000   0.200   0.000    0.00
   6.900   16.69    0.37   -0.50   0.000   0.200   0.000    0.00
   6.950   16.69    0.54    0.11   0.000   0.200   0.000    0.00
   7.000   17.15   -0.51    0.43   0.000   0.200   0.000    0.00
   7.050   17.08    0.50   -0.70   0.000   0.200   0.000    0.00
   7.100   17.33    0.54   -0.29   0.000   0.200   0.000    0.00
   7.150   17.36    0.34   -0.41   0.000   0.200   0.000    0.00
   7.200   17.20   -1.96    0.45   0.000   0.200   0.000    0.00
   7.250   17.50   -1.30    1.02   0.000   0.200   0.000    0.00
   7.300   18.63    2.77    1.29   0.000   0.200   0.000    0.00
   7.350   18.23    1.66   -0.18   0.000   0.200   0.000    0.00
   7.400   17.89    0.62    0.13   0.000   0.200   0.000    0.00
   7.450   17.92    1.97    0.04   0.000   0.200   0.000    0.00
   7.500   17.07    2.12   -0.23   0.000   0.200   0.000    0.00
   7.550   17.93   -1.01   -0.10   0.000   0.200   0.000    0.00
   7.600   17.63    0.97    1.32   0.000   0.200   0.000    0.00
   7.650   16.73   -0.46    1.78   0.000   0.200   0.000    0.00
   7.700   15.85   -2.66    0.21   0.000   0.200   0.000    0.00
   7.750   16.24   -2.55   -0.60   0.000   0.200   0.000    0.00
   7.800   16.56   -3.40    0.10   0.000   0.200   0.000    0.00
   7.850   16.26   -5.71   -0.18   0.000   0.200   0.000    0.00
   7.900   16.66   -4.60   -0.57   0.000   0.200   0.000    0.00
   7.950   16.89   -5.10   -1.52   0.000   0.200   0.000    0.00
   8.000   17.06   -5.64   -0.68   0.000   0.200   0.000    0.00
   8.050   17.17   -8.09   -0.78   0.000   0.200   0.000    0.00
   8.100   16.92   -6.98   -1.03   0.000   0.200   0.000    0.00
   8.150   17.65  -11.50   -0.23   0.000   0.200   0.000    0.00
   8.200   18.05   -5.32    0.09   0.000   0.200   0.000    0.00
   8.250   17.84   -1.69   -0.77   0.000   0.200   0.000    0.00
   8.300   18.26    0.70   -0.94   0.000   0.200   0.000    0.00
   8.350   19.64    1.88   -1.79   0.000   0.200   0.000    0.00
   8.400   20.09    1.00   -2.53   0.000   0.200   0.000    0.00
   8.450   19.72   -0.91   -1.68   0.000   0.200   0.000    0.00
   8.500   19.47   -3.78   -0.99   0.000   0.200   0.000    0.00
   8.550   18.75   -4.59   -0.55   0.000   0.200   0.000    0.00
   8.600   18.60   -5.73    0.06   0.000   0.200   0.000    0.00
   8.650   18.02   -5.26   -0.50   0.000   0.200   0.000    0.00
   8.700   18.17   -1.37   -0.96   0.000   0.200   0.000    0.00
   8.750   18.43   -0.11    0.15   0.000   0.200   0.000    0.00
   8.800   18.48   -3.68    1.00   0.000   0.200   0.000    0.00
   8.850   17.98    0.78    0.69   0.000   0.200   0.000    0.00
   8.900   17.75    3.45   -0.62   0.000   0.200   0.000    0.00
   8.950   17.47    2.61   -1.31   0.000   0.200   0.000    0.00
   9.000   17.80    4.07   -0.85   0.000   0.200   0.000    0.00
   9.050   18.32    5.17   -1.32   0.000   0.200   0.000    0.00
   9.100   17.81    4.26   -0.89   0.000   0.200   0.000    0.00
   9.150   18.09    0.90   -1.66   0.000   0.200   0.000    0.00
   9.200   18.27    4.34   -1.89   0.000   0.200   0.000    0.00
   9.250   17.92    0.98   -1.69   0.000   0.200   0.000    0.00
   9.300   18.25   -2.11   -1.16   0.000   0.200   0.000    0.00
   9.350   18.09   -1.92   -0.15   0.000   0.200   0.000    0.00
   9.400   18.12   -1.57   -0.10   0.000   0.200   0.000    0.00
   9.450   18.60   -3.51   -0.46   0.000   0.200   0.000    0.00
   9.500   19.26   -6.13   -1.00   0.000   0.200   0.000    0.00
   9.550   19.40  -11.59   -1.37   0.000   0.200   0.000    0.00
   9.600   19.65  -10.51   -2.65   0.000   0.200   0.000    0.00
   9.650   20.34  -10.95   -2.38   0.000   0.200   0.000    0.00
   9.700   20.59   -9.09   -2.51   0.000   0.200   0.000    0.00
   9.750   20.38   -6.69   -1.88   0.000   0.200   0.000    0.00
   9.800   19.81   -9.72   -2.54   0.000   0.200   0.000    0.00
   9.850   20.10   -8.63   -2.04   0.000   0.200   0.000    0.00
   9.900   20.60   -7.42   -0.97   0.000   0.200   0.000    0.00
   9.950   21.65   -5.61   -1.78   0.000   0.200   0.000    0.00
  10.000   21.55   -6.06   -2.78   0.000   0.200   0.000    0.00
  10.050   20.27   -4.34   -3.03   0.000   0.200   0.000    0.00
  10.100   20.05   -7.01   -2.63   0.000   0.200   0.000    0.00
  10.150   20.61   -8.65   -2.39   0.000   0.200   0.000    0.00
  10.200   19.61   -9.44   -2.55   0.000   0.200   0.000    0.00
  10.250   19.78  -12.49   -2.94   0.000   0.200   0.000    0.00
  10.300   19.96   -9.08   -2.62   0.000   0.200   0.000    0.00
  10.350   20.39   -7.85   -2.16   0.000   0.200   0.000    0.00
  10.400   19.40   -8.27   -1.27   0.000   0.200   0.000    0.00
  10.450   20.00   -7.68   -1.26   0.000   0.200   0.000    0.00
  10.500   20.73   -6.73    0.28   0.000   0.200   0.000    0.00
  10.550   20.27   -5.74    1.33   0.000   0.200   0.000    0.00
  10.600   20.94   -3.14    1.38   0.000   0.200   0.000    0.00
  10.650   20.64   -0.87    1.31   0.000   0.200   0.000    0.00
  10.700   19.94   -0.82    0.99   0.000   0.200   0.000    0.00
  10.750   19.03   -4.40    1.09   0.000   0.200   0.000    0.00
  10.800   19.47   -2.13    1.47   0.000   0.200   0.000    0.00
  10.850   20.61   -0.42    0.83   0.000   0.200   0.000    0.00
  10.900   21.80   -1.25    0.91   0.000   0.200   0.000    0.00
  10.950   20.03   -2.97    0.98   0.000   0.200   0.000    0.00
  11.000   21.03   -3.33    1.01   0.000   0.200   0.000    0.00
  11.050   21.95   -4.63    0.43   0.000   0.200   0.000    0.00
  11.100   22.46   -7.13    0.98   0.000   0.200   0.000    0.00
  11.150   21.51   -4.81    1.03   0.000   0.200   0.000    0.00
  11.200   22.35   -3.56    0.47   0.000   0.200   0.000    0.00
  11.250   20.74    1.93    0.30   0.000   0.200   0.000    0.00
  11.300   20.86    2.55   -0.19   0.000   0.200   0.000    0.00
  11.350   21.33    1.79   -0.70   0.000   0.200   0.000    0.00
  11.400   21.48    2.59    0.11   0.000   0.200   0.000    0.00
  11.450   21.78   -1.43   -0.35   0.000   0.200   0.000    0.00
  11.500   22.07   -1.65   -0.91   0.000   0.200   0.000    0.00
  11.550   22.36    0.02   -0.57   0.000   0.200   0.000    0.00
  11.600   23.09   -0.93   -0.84   0.000   0.200   0.000    0.00
  11.650   22.51   -1.21    0.14   0.000   0.200   0.000    0.00
  11.700   21.50   -0.51    0.00   0.000   0.200   0.000    0.00
  11.750   21.70   -0.96    1.21   0.000   0.200   0.000    0.00
  11.800   21.83   -1.16    1.34   0.000   0.200   0.000    0.00
  11.850   21.41   -0.69    1.80   0.000   0.200   0.000    0.00
  11.900   22.14    0.83    1.82   0.000   0.200   0.000    0.00
  11.950   21.37   -1.23    1.82   0.000   0.200   0.000    0.00
  12.000   20.82   -2.89    2.14   0.000   0.200   0.000    0.00
  12.050   21.58   -3.47    1.60   0.000   0.200   0.000    0.00
  12.100   21.64   -2.84    1.47   0.000   0.200   0.000    0.00
  12.150   21.73   -4.16    0.86   0.000   0.200   0.000    0.00
  12.200   21.01   -2.65    1.55   0.000   0.200   0.000    0.00
  12.250   19.91   -1.90    2.26   0.000   0.200   0.000    0.00
  12.300   20.75   -1.47    1.86   0.000   0.200   0.000    0.00
  12.350   20.27   -0.70    0.46   0.000   0.200   0.000    0.00
  12.400   18.89    1.54    0.13   0.000   0.200   0.000    0.00
  12.450   19.15   -0.65   -0.04   0.000   0.200   0.000    0.00
  12.500   18.53    0.28   -0.27   0.000   0.200   0.000    0.00
  12.550   18.49    1.95    0.55   0.000   0.200   0.000    0.00
  12.600   18.94    1.26    1.34   0.000   0.200   0.000    0.00
  12.650   18.59   -1.39    1.84   0.000   0.200   0.000    0.00
  12.700   18.57   -2.36    1.09   0.000   0.200   0.000    0.00
  12.750   18.87   -0.62    1.46   0.000   0.200   0.000    0.00
  12.800   19.30    0.44    0.85   0.000   0.200   0.000    0.00
  12.850   18.94    1.64    0.07   0.000   0.200   0.000    0.00
  12.900   18.61    0.31   -0.43   0.000   0.200   0.000    0.00
  12.950   18.24    0.67    0.28   0.000   0.200   0.000    0.00
  13.000   19.04    0.17    0.98   0.000   0.200   0.000    0.00
  13.050   19.82    1.95    0.71   0.000   0.200   0.000    0.00
  13.100   19.78    0.26   -0.02   0.000   0.200   0.000    0.00
  13.150   19.80    1.08   -0.28   0.000   0.200   0.000    0.00
  13.200   20.19    1.37   -1.11   0.000   0.200   0.000    0.00
  13.250   19.62   -3.99   -1.35   0.000   0.200   0.000    0.00
  13.300   19.17   -7.60   -0.99   0.000   0.200   0.000    0.00
  13.350   19.26   -6.03   -0.92   0.000   0.200   0.000    0.00
  13.400   19.88   -2.95   -0.47   0.000   0.200   0.000    0.00
  13.450   20.39   -4.80   -0.08   0.000   0.200   0.000    0.00
  13.500   20.22   -5.96   -0.38   0.000   0.200   0.000    0.00
  13.550   19.00   -4.74   -0.61   0.000   0.200   0.000    0.00
  13.600   17.94   -3.58   -0.73   0.000   0.200   0.000    0.00
  13.650   18.33   -2.68   -1.07   0.000   0.200   0.000    0.00
  13.700   18.62   -8.51    0.35   0.000   0.200   0.000    0.00
  13.750   19.95   -7.26   -0.52   0.000   0.200   0.000    0.00
  13.800   19.64   -7.66   -1.72   0.000   0.200   0.000    0.00
  13.850   20.03   -6.73   -0.99   0.000   0.200   0.000    0.00
  13.900   20.49   -4.06   -0.72   0.000   0.200   0.000    0.00
  13.950   20.01   -4.84   -1.35   0.000   0.200   0.000    0.00
  14.000   20.21   -6.47   -1.67   0.000   0.200   0.000    0.00
  14.050   19.90   -2.34   -0.90   0.000   0.200   0.000    0.00
  14.100   19.85   -3.22   -0.83   0.000   0.200   0.000    0.00
  14.150   19.36   -5.47   -1.30   0.000   0.200   0.000    0.00
  14.200   20.00   -7.08   -0.19   0.000   0.200   0.000    0.00
  14.250   20.07   -6.71   -0.08   0.000   0.200   0.000    0.00
  14.300   20.50   -6.65   -0.62   0.000   0.200   0.000    0.00
  14.350   19.76   -7.84   -0.92   0.000   0.200   0.000    0.00
  14.400   20.03   -5.73   -1.00   0.000   0.200   0.000    0.00
  14.450   19.93   -8.28    0.53   0.000   0.200   0.000    0.00
  14.500   20.08  -13.30    0.83   0.000   0.200   0.000    0.00
  14.550   20.20  -13.07    0.85   0.000   0.200   0.000    0.00
  14.600   19.51  -13.50    0.71   0.000   0.200   0.000    0.00
  14.650   19.34  -14.14    1.22   0.000   0.200   0.000    0.00
  14.700   19.59  -15.36    1.62   0.000   0.200   0.000    0.00
  14.750   19.18  -15.35    1.79   0.000   0.200   0.000    0.00
  14.800   18.38  -12.94    1.80   0.000   0.200   0.000    0.00
  14.850   19.36  -10.81    2.28   0.000   0.200   0.000    0.00
  14.900   19.67  -12.03    1.97   0.000   0.200   0.000    0.00
  14.950   18.48  -10.98    1.54   0.000   0.200   0.000    0.00
  15.000   18.37  -11.91    1.54   0.000   0.200   0.000    0.00
  15.050   18.37  -13.71    2.08   0.000   0.200   0.000    0.00
  15.100   18.86  -16.91    1.58   0.000   0.200   0.000    0.00
  15.150   18.68  -17.10    2.30   0.000   0.200   0.000    0.00
  15.200   18.10  -17.15    1.60   0.000   0.200   0.000    0.00
  15.250   17.39  -13.22    2.34   0.000   0.200   0.000    0.00
  15.300   17.87  -12.85    2.14   0.000   0.200   0.000    0.00
  15.350   19.09  -11.79    1.10   0.000   0.200   0.000    0.00
  15.400   18.15  -11.41    1.40   0.000   0.200   0.000    0.00
  15.450   18.60  -11.57    1.54   0.000   0.200   0.000    0.00
  15.500   18.30   -9.57    1.02   0.000   0.200   0.000    0.00
  15.550   18.28   -8.78   -0.02   0.000   0.200   0.000    0.00
  15.600   18.00   -7.54   -0.88   0.000   0.200   0.000    0.00
  15.650   17.75   -5.20    0.61   0.000   0.200   0.000    0.00
  15.700   18.00   -6.32    0.78   0.000   0.200   0.000    0.00
  15.750   18.58   -4.91    0.58   0.000   0.200   0.000    0.00
  15.800   18.37   -5.92    0.94   0.000   0.200   0.000    0.00
  15.850   17.65  -12.23   -0.10   0.000   0.200   0.000    0.00
  15.900   16.89  -13.82   -0.23   0.000   0.200   0.000    0.00
  15.950   18.20  -15.37   -0.40   0.000   0.200   0.000    0.00
  16.000   18.67  -13.58   -0.14   0.000   0.200   0.000    0.00
  16.050   18.47  -16.41    0.14   0.000   0.200   0.000    0.00
  16.100   17.66  -18.52    0.25   0.000   0.200   0.000    0.00
  16.150   18.30  -16.61    0.32   0.000   0.200   0.000    0.00
  16.200   18.93  -14.63    0.21   0.000   0.200   0.000    0.00
  16.250   19.07  -13.89    0.72   0.000   0.200   0.000    0.00
  16.300   18.45  -13.22    0.63   0.000   0.200   0.000    0.00
  16.350   17.99  -16.44   -0.22   0.000   0.200   0.000    0.00
  16.400   18.65  -15.89    0.88   0.000   0.200   0.000    0.00
  16.450   18.80  -13.08    0.32   0.000   0.200   0.000    0.00
  16.500   18.28  -13.98    0.00   0.000   0.200   0.000    0.00
  16.550   18.81  -13.32    0.22   0.000   0.200   0.000    0.00
  16.600   18.82  -15.31   -0.07   0.000   0.200   0.000    0.00
  16.650   18.69  -19.21   -0.23   0.000   0.200   0.000    0.00
  16.700   19.46  -19.16   -0.52   0.000   0.200   0.000    0.00
  16.750   20.95  -19.11   -0.49   0.000   0.200   0.000    0.00
  16.800   20.07  -19.99   -1.22   0.000   0.200   0.000    0.00
  16.850   19.24  -17.46   -0.96   0.000   0.200   0.000    0.00
  16.900   19.00  -12.50   -0.82   0.000   0.200   0.000    0.00
  16.950   18.70  -13.76   -0.42   0.000   0.200   0.000    0.00
  17.000   18.73  -13.81   -0.87   0.000   0.200   0.000    0.00
  17.050   19.26  -11.48   -2.06   0.000   0.200   0.000    0.00
  17.100   19.05  -11.07   -1.66   0.000   0.200   0.000    0.00
  17.150   19.42  -12.83   -1.42   0.000   0.200   0.000    0.00
  17.200   19.94  -15.19   -0.74   0.000   0.200   0.000    0.00
  17.250   20.00  -17.01   -0.88   0.000   0.200   0.000    0.00
  17.300   20.59  -15.48   -0.96   0.000   0.200   0.000    0.00
  17.350   19.63  -17.49   -0.64   0.000   0.200   0.000    0.00
  17.400   19.03  -18.28   -0.62   0.000   0.200   0.000    0.00
  17.450   18.70  -16.41   -0.37   0.000   0.200   0.000    0.00
  17.500   17.81  -13.58   -0.01   0.000   0.200   0.000    0.00
  17.550   18.53  -13.28    0.32   0.000   0.200   0.000    0.00
  17.600   18.85  -11.50   -0.01   0.000   0.200   0.000    0.00
  17.650   18.93  -12.18    0.85   0.000   0.200   0.000    0.00
  17.700   18.14  -14.09    1.28   0.000   0.200   0.000    0.00
  17.750   18.23  -10.16    1.15   0.000   0.200   0.000    0.00
  17.800   18.70   -9.01    1.76   0.000   0.200   0.000    0.00
  17.850   19.32  -10.97    1.50   0.000   0.200   0.000    0.00
  17.900   18.91  -11.43    2.20   0.000   0.200   0.000    0.00
  17.950   19.82  -12.60    2.78   0.000   0.200   0.000    0.00
  18.000   20.67  -14.19    1.67   0.000   0.200   0.000    0.00
  18.050   21.10  -13.79    0.66   0.000   0.200   0.000    0.00
  18.100   21.35  -10.63    0.75   0.000   0.200   0.000    0.00
  18.150   21.79  -13.52    0.39   0.000   0.200   0.000    0.00
  18.200   22.46  -13.61   -1.05   0.000   0.200   0.000    0.00
  18.250   22.11  -12.41   -0.68   0.000   0.200   0.000    0.00
  18.300   21.46  -13.60   -0.61   0.000   0.200   0.000    0.00
  18.350   20.68  -13.67   -0.88   0.000   0.200   0.000    0.00
  18.400   20.69  -13.15   -0.62   0.000   0.200   0.000    0.00
  18.450   21.40  -12.77   -0.59   0.000   0.200   0.000    0.00
  18.500   21.15  -12.42   -0.39   0.000   0.200   0.000    0.00
  18.550   21.77  -11.28   -1.03   0.000   0.200   0.000    0.00
  18.600   21.31  -11.15    0.06   0.000   0.200   0.000    0.00
  18.650   22.48  -10.12    0.26   0.000   0.200   0.000    0.00
  18.700   22.68  -13.82    0.37   0.000   0.200   0.000    0.00
  18.750   22.39  -15.63    0.56   0.000   0.200   0.000    0.00
  18.800   23.11  -15.95    0.42   0.000   0.200   0.000    0.00
  18.850   22.46  -11.92   -0.11   0.000   0.200   0.000    0.00
  18.900   21.84  -11.29   -0.82   0.000   0.200   0.000    0.00
  18.950   21.77  -13.76   -0.03   0.000   0.200   0.000    0.00
  19.000   21.13  -12.96    0.41   0.000   0.200   0.000    0.00
  19.050   21.71  -12.51    0.36   0.000   0.200   0.000    0.00
  19.100   21.73  -13.11   -0.08   0.000   0.200   0.000    0.00
  19.150   21.90  -13.72   -0.39   0.000   0.200   0.000    0.00
  19.200   22.01  -14.60   -0.23   0.000   0.200   0.000    0.00
  19.250   22.33  -12.05    0.21   0.000   0.200   0.000    0.00
  19.300   22.73  -15.32   -0.23   0.000   0.200   0.000    0.00
  19.350   21.65  -16.75    0.08   0.000   0.200   0.000    0.00
  19.400   22.47  -15.34   -0.22   0.000   0.200   0.000    0.00
  19.450   22.14  -15.96   -0.76   0.000   0.200   0.000    0.00
  19.500   21.96  -17.45   -1.06   0.000   0.200   0.000    0.00
  19.550   20.55  -17.21   -1.96   0.000   0.200   0.000    0.00
  19.600   20.28  -14.67   -1.28   0.000   0.200   0.000    0.00
  19.650   20.34  -12.95   -2.67   0.000   0.200   0.000    0.00
  19.700   20.70  -11.70   -2.56   0.000   0.200   0.000    0.00
  19.750   21.00  -12.34   -2.54   0.000   0.200   0.000    0.00
  19.800   20.92  -13.42   -1.72   0.000   0.200   0.000    0.00
  19.850   20.98  -12.24   -0.33   0.000   0.200   0.000    0.00
  19.900   21.14  -11.70   -0.54   0.000   0.200   0.000    0.00
  19.950   21.74  -12.39   -0.56   0.000   0.200   0.000    0.00
  20.000   21.68  -12.74    0.36   0.000   0.200   0.000    0.00
  20.050   21.61  -12.06    0.06   0.000   0.200   0.000    0.00
  20.100   21.73  -12.55   -0.63   0.000   0.200   0.000    0.00
  20.150   21.11  -12.07   -1.58   0.000   0.200   0.000    0.00
  20.200   20.78  -12.93   -0.55   0.000   0.200   0.000    0.00
  20.250   20.80  -10.99   -0.08   0.000   0.200   0.000    0.00
  20.300   20.60   -9.51   -0.38   0.000   0.200   0.000    0.00
  20.350   21.23  -10.44   -0.19   0.000   0.200   0.000    0.00
  20.400   21.14   -7.53   -0.85   0.000   0.200   0.000    0.00
  20.450   20.74  -10.79   -1.28   0.000   0.200   0.000    0.00
  20.500   19.92  -14.42   -0.94   0.000   0.200   0.000    0.00
  20.550   19.23  -12.87   -0.52   0.000   0.200   0.000    0.00
  20.600   19.29  -11.42    0.05   0.000   0.200   0.000    0.00
  20.650   18.85   -7.60    0.03   0.000   0.200   0.000    0.00
  20.700   18.81   -6.12   -0.26   0.000   0.200   0.000    0.00
  20.750   19.90  -10.26   -0.23   0.000   0.200   0.000    0.00
  20.800   19.87   -9.88    0.54   0.000   0.200   0.000    0.00
  20.850   19.49  -11.66    0.03   0.000   0.200   0.000    0.00
  20.900   20.17  -10.49   -0.04   0.000   0.200   0.000    0.00
  20.950   21.34   -8.18    0.03   0.000   0.200   0.000    0.00
  21.000   20.57   -7.24   -0.55   0.000   0.200   0.000    0.00
  21.050   21.15   -6.86   -0.44   0.000   0.200   0.000    0.00
  21.100   20.60   -6.03   -0.87   0.000   0.200   0.000    0.00
  21.150   21.10   -8.98   -1.24   0.000   0.200   0.000    0.00
  21.200   20.71  -10.59   -1.00   0.000   0.200   0.000    0.00
  21.250   20.67   -8.88   -0.86   0.000   0.200   0.000    0.00
  21.300   21.19   -7.76   -2.11   0.000   0.200   0.000    0.00
  21.350   21.53   -4.35   -3.11   0.000   0.200   0.000    0.00
  21.400   22.20   -4.07   -2.96   0.000   0.200   0.000    0.00
  21.450   22.29   -6.75   -1.82   0.000   0.200   0.000    0.00
  21.500   21.42   -7.18   -2.20   0.000   0.200   0.000    0.00
  21.550   21.46   -7.32   -2.10   0.000   0.200   0.000    0.00
  21.600   21.61   -5.54   -1.73   0.000   0.200   0.000    0.00
  21.650   22.06   -4.53   -2.80   0.000   0.200   0.000    0.00
  21.700   21.31   -3.75   -2.65   0.000   0.200   0.000    0.00
  21.750   21.29   -3.75   -1.53   0.000   0.200   0.000    0.00
  21.800   20.31   -5.04   -1.12   0.000   0.200   0.000    0.00
  21.850   20.23   -3.14   -1.01   0.000   0.200   0.000    0.00
  21.900   20.53   -2.64   -1.05   0.000   0.200   0.000    0.00
  21.950   20.67   -1.58   -1.67   0.000   0.200   0.000    0.00
  22.000   20.77   -1.83   -0.72   0.000   0.200   0.000    0.00
  22.050   21.58   -2.44   -0.57   0.000   0.200   0.000    0.00
  22.100   21.60   -2.04   -1.54   0.000   0.200   0.000    0.00
  22.150   22.35   -4.43   -1.57   0.000   0.200   0.000    0.00
  22.200   22.85   -4.70   -1.60   0.000   0.200   0.000    0.00
  22.250   22.63   -5.30   -1.04   0.000   0.200   0.000    0.00
  22.300   22.33   -7.70   -1.36   0.000   0.200   0.000    0.00
  22.350   22.42   -7.09   -1.43   0.000   0.200   0.000    0.00