! This hub-height wind-speed file was generated by TurbSim (v1.06.00, 21-Sep-2012) on 03-Feb-2018 at 23:29:39.
!
! The requested statistics for this data were:
!    Mean Total Wind Speed =    5.000 m/s
!    Turbulence Intensity  =   51.162%
!
!   Time  HorSpd  WndDir  VerSpd  HorShr  VerShr  LnVShr  GstSpd
!  (sec)   (m/s)   (deg)   (m/s)     (-)     (-)     (-)   (m/s)
   0.000    7.19   30.14   -0.21   0.000   0.200   0.000    0.00
   0.050    7.02   26.21    0.29   0.000   0.200   0.000    0.00
   0.100    6.55   26.80    0.52   0.000   0.200   0.000    0.00
   0.150    6.45   25.92   -0.04   0.000   0.200   0.000    0.00
   0.200    6.89   26.11    0.62   0.000   0.200   0.000    0.00
   0.250    7.01   23.69    1.20   0.000   0.200   0.000    0.00
   0.300    6.72   25.37    0.61   0.000   0.200   0.000    0.00
   0.350    6.70   25.10    0.46   0.000   0.200   0.000    0.00
   0.400    6.09   19.84    0.30   0.000   0.200   0.000    0.00
   0.450    6.33   22.35    0.18   0.000   0.200   0.000    0.00
   0.500    6.43   17.13    0.41   0.000   0.200   0.000    0.00
   0.550    6.52   18.14    0.63   0.000   0.200   0.000    0.00
   0.600    6.66   19.19    0.26   0.000   0.200   0.000    0.00
   0.650    6.61   15.59    0.03   0.000   0.200   0.000    0.00
   0.700    6.20   17.26    0.59   0.000   0.200   0.000    0.00
   0.750    5.70   17.60    1.02   0.000   0.200   0.000    0.00
   0.800    6.00   14.17    0.82   0.000   0.200   0.000    0.00
   0.850    5.92   10.79    0.67   0.000   0.200   0.000    0.00
   0.900    5.65   11.30    0.78   0.000   0.200   0.000    0.00
   0.950    6.62   11.26    0.64   0.000   0.200   0.000    0.00
   1.000    6.67   13.40   -0.06   0.000   0.200   0.000    0.00
   1.050    6.20   15.27    0.13   0.000   0.200   0.000    0.00
   1.100    5.86   17.07    0.42   0.000   0.200   0.000    0.00
   1.150    5.89    9.76    0.44   0.000   0.200   0.000    0.00
   1.200    5.82   14.10    0.41   0.000   0.200   0.000    0.00
   1.250    5.88    8.77   -0.27   0.000   0.200   0.000    0.00
   1.300    5.74    9.97   -0.21   0.000   0.200   0.000    0.00
   1.350    5.99   12.30    0.06   0.000   0.200   0.000    0.00
   1.400    5.83   11.57    0.29   0.000   0.200   0.000    0.00
   1.450    5.90   16.05    0.34   0.000   0.200   0.000    0.00
   1.500    6.09   14.12    0.23   0.000   0.200   0.000    0.00
   1.550    6.01   11.08   -0.06   0.000   0.200   0.000    0.00
   1.600    5.98   10.40    0.18   0.000   0.200   0.000    0.00
   1.650    6.12    7.76    0.80   0.000   0.200   0.000    0.00
   1.700    6.69    6.19    1.38   0.000   0.200   0.000    0.00
   1.750    6.58    5.74    1.62   0.000   0.200   0.000    0.00
   1.800    6.23    5.70    1.38   0.000   0.200   0.000    0.00
   1.850    6.02    7.78    1.24   0.000   0.200   0.000    0.00
   1.900    5.78   10.75    1.24   0.000   0.200   0.000    0.00
   1.950    5.84   13.79    1.22   0.000   0.200   0.000    0.00
   2.000    5.93   13.25    1.15   0.000   0.200   0.000    0.00
   2.050    5.81   19.76    0.82   0.000   0.200   0.000    0.00
   2.100    5.66   19.66    0.81   0.000   0.200   0.000    0.00
   2.150    5.67   19.30    0.51   0.000   0.200   0.000    0.00
   2.200    5.87   13.04    0.32   0.000   0.200   0.000    0.00
   2.250    5.73   13.47    0.63   0.000   0.200   0.000    0.00
   2.300    5.77   14.14    0.81   0.000   0.200   0.000    0.00
   2.350    5.78   13.62    1.06   0.000   0.200   0.000    0.00
   2.400    5.25   13.45    0.50   0.000   0.200   0.000    0.00
   2.450    5.56   13.58    0.28   0.000   0.200   0.000    0.00
   2.500    5.63   13.74    0.55   0.000   0.200   0.000    0.00
   2.550    5.51   15.02    0.64   0.000   0.200   0.000    0.00
   2.600    4.86   17.43    0.22   0.000   0.200   0.000    0.00
   2.650    4.65   23.49    0.15   0.000   0.200   0.000    0.00
   2.700    4.67   24.04   -0.01   0.000   0.200   0.000    0.00
   2.750    4.71   16.67   -0.04   0.000   0.200   0.000    0.00
   2.800    4.49   19.20   -0.05   0.000   0.200   0.000    0.00
   2.850    4.08   24.93    0.15   0.000   0.200   0.000    0.00
   2.900    4.34   26.17    0.04   0.000   0.200   0.000    0.00
   2.950    4.72   24.88   -0.27   0.000   0.200   0.000    0.00
   3.000    4.23   21.87   -0.03   0.000   0.200   0.000    0.00
   3.050    4.01   20.68    0.11   0.000   0.200   0.000    0.00
   3.100    4.00   23.52   -0.20   0.000   0.200   0.000    0.00
   3.150    3.91   18.19    0.10   0.000   0.200   0.000    0.00
   3.200    3.86   20.28   -0.08   0.000   0.200   0.000    0.00
   3.250    3.60   16.43   -0.20   0.000   0.200   0.000    0.00
   3.300    3.01   18.36   -0.51   0.000   0.200   0.000    0.00
   3.350    3.01   17.54   -0.78   0.000   0.200   0.000    0.00
   3.400    3.38   17.34   -0.87   0.000   0.200   0.000    0.00
   3.450    3.77    9.75   -0.36   0.000   0.200   0.000    0.00
   3.500    4.02    5.68   -0.13   0.000   0.200   0.000    0.00
   3.550    4.33    8.37    0.28   0.000   0.200   0.000    0.00
   3.600    4.03   20.00    0.24   0.000   0.200   0.000    0.00
   3.650    4.25   19.93   -0.33   0.000   0.200   0.000    0.00
   3.700    4.16   17.66   -0.63   0.000   0.200   0.000    0.00
   3.750    3.98   13.57   -0.43   0.000   0.200   0.000    0.00
   3.800    3.49   17.87   -1.08   0.000   0.200   0.000    0.00
   3.850    3.51   16.38   -0.52   0.000   0.200   0.000    0.00
   3.900    3.14   12.38   -1.33   0.000   0.200   0.000    0.00
   3.950    3.26   17.18   -0.82   0.000   0.200   0.000    0.00
   4.000    3.15   15.71   -0.19   0.000   0.200   0.000    0.00
   4.050    2.76   12.15   -0.75   0.000   0.200   0.000    0.00
   4.100    2.95   16.25   -0.57   0.000   0.200   0.000    0.00
   4.150    2.81   28.61   -0.59   0.000   0.200   0.000    0.00
   4.200    2.72   29.79   -0.02   0.000   0.200   0.000    0.00
   4.250    2.72   39.23   -0.54   0.000   0.200   0.000    0.00
   4.300    3.23   28.53   -0.26   0.000   0.200   0.000    0.00
   4.350    3.10   26.62   -0.75   0.000   0.200   0.000    0.00
   4.400    2.76   36.69   -0.27   0.000   0.200   0.000    0.00
   4.450    2.88   36.08    0.07   0.000   0.200   0.000    0.00
   4.500    2.74   19.22   -0.12   0.000   0.200   0.000    0.00
   4.550    3.02   11.26    0.56   0.000   0.200   0.000    0.00
   4.600    2.22    9.04    0.57   0.000   0.200   0.000    0.00
   4.650    2.39    6.88    0.26   0.000   0.200   0.000    0.00
   4.700    2.68    7.62    0.54   0.000   0.200   0.000    0.00
   4.750    2.70    3.24    0.16   0.000   0.200   0.000    0.00
   4.800    2.53    5.73    0.36   0.000   0.200   0.000    0.00
   4.850    2.57    1.24    0.68   0.000   0.200   0.000    0.00
   4.900    2.80    5.60    0.59   0.000   0.200   0.000    0.00
   4.950    2.83    6.06   -0.13   0.000   0.200   0.000    0.00
   5.000    2.70    2.85   -0.09   0.000   0.200   0.000    0.00
   5.050    2.79   -7.81    0.11   0.000   0.200   0.000    0.00
   5.100    3.88  -18.37    0.30   0.000   0.200   0.000    0.00
   5.150    3.91  -14.92    0.05   0.000   0.200   0.000    0.00
   5.200    3.96  -19.59    0.15   0.000   0.200   0.000    0.00
   5.250    3.75  -13.49    0.54   0.000   0.200   0.000    0.00
   5.300    3.67   -4.83    0.29   0.000   0.200   0.000    0.00
   5.350    3.59   -0.04   -0.36   0.000   0.200   0.000    0.00
   5.400    3.91   -6.57   -0.88   0.000   0.200   0.000    0.00
   5.450    4.16    0.65   -0.74   0.000   0.200   0.000    0.00
   5.500    4.31   -4.30   -0.57   0.000   0.200   0.000    0.00
   5.550    3.97   -0.84   -0.74   0.000   0.200   0.000    0.00
   5.600    4.07   11.07   -0.30   0.000   0.200   0.000    0.00
   5.650    4.12   10.04   -0.42   0.000   0.200   0.000    0.00
   5.700    4.06    7.53   -0.71   0.000   0.200   0.000    0.00
   5.750    4.02   -2.74   -0.15   0.000   0.200   0.000    0.00
   5.800    3.94   -3.98   -0.08   0.000   0.200   0.000    0.00
   5.850    4.31    2.27    0.27   0.000   0.200   0.000    0.00
   5.900    4.80    3.48   -0.14   0.000   0.200   0.000    0.00
   5.950    4.46    6.71    0.08   0.000   0.200   0.000    0.00
   6.000    4.20    9.24   -0.01   0.000   0.200   0.000    0.00
   6.050    4.09   14.64   -0.19   0.000   0.200   0.000    0.00
   6.100    4.19    6.49    0.06   0.000   0.200   0.000    0.00
   6.150    3.78    2.71    0.25   0.000   0.200   0.000    0.00
   6.200    4.15   -3.01    0.03   0.000   0.200   0.000    0.00
   6.250    4.15    1.48    0.15   0.000   0.200   0.000    0.00
   6.300    3.81   -2.46    0.13   0.000   0.200   0.000    0.00
   6.350    3.40   -6.85   -0.36   0.000   0.200   0.000    0.00
   6.400    2.96    0.81   -0.40   0.000   0.200   0.000    0.00
   6.450    2.86  -14.47   -0.91   0.000   0.200   0.000    0.00
   6.500    2.55  -18.33   -0.99   0.000   0.200   0.000    0.00
   6.550    2.52  -24.77   -1.13   0.000   0.200   0.000    0.00
   6.600    3.22  -22.50   -1.16   0.000   0.200   0.000    0.00
   6.650    3.41  -21.54   -1.61   0.000   0.200   0.000    0.00
   6.700    3.15  -25.24   -1.58   0.000   0.200   0.000    0.00
   6.750    2.84  -19.86   -1.84   0.000   0.200   0.000    0.00
   6.800    3.14  -22.52   -0.46   0.000   0.200   0.000    0.00
   6.850    2.78  -17.94   -0.47   0.000   0.200   0.000    0.00
   6.900    3.00  -31.26   -0.30   0.000   0.200   0.000    0.00
   6.950    2.78  -40.44   -0.59   0.000   0.200   0.000    0.00
   7.000    2.57  -34.24   -0.99   0.000   0.200   0.000    0.00
   7.050    1.84  -30.47   -1.41   0.000   0.200   0.000    0.00
   7.100    1.71  -19.04   -1.20   0.000   0.200   0.000    0.00
   7.150    1.95  -14.36   -0.82   0.000   0.200   0.000    0.00
   7.200    1.97  -10.04   -0.62   0.000   0.200   0.000    0.00
   7.250    2.26   -8.64   -0.66   0.000   0.200   0.000    0.00
   7.300    2.48    0.10   -0.83   0.000   0.200   0.000    0.00
   7.350    3.15   -9.80   -0.69   0.000   0.200   0.000    0.00
   7.400    2.66  -11.26   -0.59   0.000   0.200   0.000    0.00
   7.450    2.33   -2.65   -1.41   0.000   0.200   0.000    0.00
   7.500    2.06  -15.87   -1.40   0.000   0.200   0.000    0.00
   7.550    2.31  -19.57   -0.69   0.000   0.200   0.000    0.00
   7.600    2.87  -19.91   -0.17   0.000   0.200   0.000    0.00
   7.650    2.96   -6.73   -0.42   0.000   0.200   0.000    0.00
   7.700    3.20   -5.19    0.13   0.000   0.200   0.000    0.00
   7.750    3.58  -16.23    0.52   0.000   0.200   0.000    0.00
   7.800    3.46  -15.27    0.23   0.000   0.200   0.000    0.00
   7.850    3.49  -12.24    0.40   0.000   0.200   0.000    0.00
   7.900    3.10  -21.01    1.01   0.000   0.200   0.000    0.00
   7.950    3.29  -22.74    1.11   0.000   0.200   0.000    0.00
   8.000    3.02  -23.25    0.74   0.000   0.200   0.000    0.00
   8.050    3.23  -32.72    0.40   0.000   0.200   0.000    0.00
   8.100    2.62  -35.78    0.86   0.000   0.200   0.000    0.00
   8.150    2.74  -26.57    1.21   0.000   0.200   0.000    0.00
   8.200    2.82  -16.12    1.54   0.000   0.200   0.000    0.00
   8.250    2.61  -15.23    0.78   0.000   0.200   0.000    0.00
   8.300    2.87  -15.35    1.69   0.000   0.200   0.000    0.00
   8.350    2.67  -18.88    1.24   0.000   0.200   0.000    0.00
   8.400    3.01  -18.20    1.04   0.000   0.200   0.000    0.00
   8.450    2.90  -11.39    1.04   0.000   0.200   0.000    0.00
   8.500    3.11    1.61    1.21   0.000   0.200   0.000    0.00
   8.550    2.92    2.57    0.85   0.000   0.200   0.000    0.00
   8.600    3.08    3.96    0.57   0.000   0.200   0.000    0.00
   8.650    3.23    4.80    0.47   0.000   0.200   0.000    0.00
   8.700    3.46    9.24    0.77   0.000   0.200   0.000    0.00
   8.750    4.07    7.44    0.16   0.000   0.200   0.000    0.00
   8.800    3.85   13.64    0.08   0.000   0.200   0.000    0.00
   8.850    3.59    8.97   -0.57   0.000   0.200   0.000    0.00
   8.900    3.69   -7.78   -0.46   0.000   0.200   0.000    0.00
   8.950    4.04   -0.47   -0.24   0.000   0.200   0.000    0.00
   9.000    3.75   -8.18   -0.10   0.000   0.200   0.000    0.00
   9.050    3.54   -4.07    0.43   0.000   0.200   0.000    0.00
   9.100    3.53   -2.69    1.51   0.000   0.200   0.000    0.00
   9.150    3.32   -4.77    1.98   0.000   0.200   0.000    0.00
   9.200    3.05   -2.81    1.76   0.000   0.200   0.000    0.00
   9.250    3.28    1.62    1.37   0.000   0.200   0.000    0.00
   9.300    3.26   -2.81    1.02   0.000   0.200   0.000    0.00
   9.350    2.95   -3.21    1.27   0.000   0.200   0.000    0.00
   9.400    2.09    1.96    1.89   0.000   0.200   0.000    0.00
   9.450    2.51  -11.36    1.86   0.000   0.200   0.000    0.00
   9.500    2.44    1.32    1.68   0.000   0.200   0.000    0.00
   9.550    2.61   11.85    1.40   0.000   0.200   0.000    0.00
   9.600    2.45    1.86    1.03   0.000   0.200   0.000    0.00
   9.650    2.28   -4.10    1.40   0.000   0.200   0.000    0.00
   9.700    2.61  -18.66    1.19   0.000   0.200   0.000    0.00
   9.750    2.92  -13.51    1.37   0.000   0.200   0.000    0.00
   9.800    3.19  -10.07    1.30   0.000   0.200   0.000    0.00
   9.850    3.13   -3.46    1.44   0.000   0.200   0.000    0.00
   9.900    2.53   -5.06    1.29   0.000   0.200   0.000    0.00
   9.950    2.73   -7.32    1.76   0.000   0.200   0.000    0.00
  10.000    2.82   -5.65    0.95   0.000   0.200   0.000    0.00
  10.050    2.93   -1.34    1.00   0.000   0.200   0.000    0.00
  10.100    3.00    0.39    0.56   0.000   0.200   0.000    0.00
  10.150    3.01   -5.79    0.65   0.000   0.200   0.000    0.00
  10.200    3.23  -11.01    0.52   0.000   0.200   0.000    0.00
  10.250    3.36  -14.80   -0.15   0.000   0.200   0.000    0.00
  10.300    3.61  -13.44    0.09   0.000   0.200   0.000    0.00
  10.350    4.08   -9.49    0.30   0.000   0.200   0.000    0.00
  10.400    4.08   -6.98    0.16   0.000   0.200   0.000    0.00
  10.450    4.02   -2.17    0.02   0.000   0.200   0.000    0.00
  10.500    3.80   -5.49    0.68   0.000   0.200   0.000    0.00
  10.550    4.41   -4.80    0.39   0.000   0.200   0.000    0.00
  10.600    4.34  -11.59   -0.47   0.000   0.200   0.000    0.00
  10.650    4.63   -8.67   -0.73   0.000   0.200   0.000    0.00
  10.700    4.43   -7.19   -0.97   0.000   0.200   0.000    0.00
  10.750    4.92   -3.17   -0.57   0.000   0.200   0.000    0.00
  10.800    5.51   -5.19   -0.39   0.000   0.200   0.000    0.00
  10.850    4.96   -6.73   -0.70   0.000   0.200   0.000    0.00
  10.900    5.26   -3.67   -0.30   0.000   0.200   0.000    0.00
  10.950    5.49   -2.25    0.04   0.000   0.200   0.000    0.00
  11.000    4.71    3.16   -0.05   0.000   0.200   0.000    0.00
  11.050    5.37    8.60    0.24   0.000   0.200   0.000    0.00
  11.100    5.47    9.40    0.18   0.000   0.200   0.000    0.00
  11.150    5.50   13.96    0.30   0.000   0.200   0.000    0.00
  11.200    5.22   14.79   -0.67   0.000   0.200   0.000    0.00
  11.250    5.50   12.00   -0.64   0.000   0.200   0.000    0.00
  11.300    5.90   10.98   -0.45   0.000   0.200   0.000    0.00
  11.350    5.57   -0.96   -0.97   0.000   0.200   0.000    0.00
  11.400    5.64   -3.88   -0.71   0.000   0.200   0.000    0.00
  11.450    5.68    1.34   -0.33   0.000   0.200   0.000    0.00
  11.500    5.66    3.38   -0.46   0.000   0.200   0.000    0.00
  11.550    5.34    2.93   -0.16   0.000   0.200   0.000    0.00
  11.600    5.32   -1.89   -0.29   0.000   0.200   0.000    0.00
  11.650    5.24    1.88    0.08   0.000   0.200   0.000    0.00
  11.700    6.18    0.79    0.45   0.000   0.200   0.000    0.00
  11.750    6.02    2.57    0.59   0.000   0.200   0.000    0.00
  11.800    5.53    6.06   -0.33   0.000   0.200   0.000    0.00
  11.850    5.44   10.51   -0.15   0.000   0.200   0.000    0.00
  11.900    4.92   15.59   -0.58   0.000   0.200   0.000    0.00
  11.950    5.19   15.96   -0.78   0.000   0.200   0.000    0.00
  12.000    5.33   17.55   -0.67   0.000   0.200   0.000    0.00
  12.050    5.29   19.99   -1.02   0.000   0.200   0.000    0.00
  12.100    5.53   21.28   -1.50   0.000   0.200   0.000    0.00
  12.150    5.51   17.13   -0.59   0.000   0.200   0.000    0.00
  12.200    5.00   12.50   -0.60   0.000   0.200   0.000    0.00
  12.250    4.98   13.96   -0.08   0.000   0.200   0.000    0.00
  12.300    5.21   19.85    0.40   0.000   0.200   0.000    0.00
  12.350    5.19   15.63   -0.14   0.000   0.200   0.000    0.00
  12.400    5.32   12.25    0.05   0.000   0.200   0.000    0.00
  12.450    5.07    6.36   -0.25   0.000   0.200   0.000    0.00
  12.500    4.81    7.89   -0.28   0.000   0.200   0.000    0.00
  12.550    4.39    1.95   -0.98   0.000   0.200   0.000    0.00
  12.600    4.50   -0.01   -0.70   0.000   0.200   0.000    0.00
  12.650    4.41    2.58   -0.44   0.000   0.200   0.000    0.00
  12.700    4.30   -2.31   -0.48   0.000   0.200   0.000    0.00
  12.750    5.01    1.07   -0.33   0.000   0.200   0.000    0.00
  12.800    5.29    3.72   -0.51   0.000   0.200   0.000    0.00
  12.850    5.29   -1.60   -0.32   0.000   0.200   0.000    0.00
  12.900    5.54    1.10    0.17   0.000   0.200   0.000    0.00
  12.950    4.96    4.17    0.24   0.000   0.200   0.000    0.00
  13.000    4.79    3.74    0.39   0.000   0.200   0.000    0.00
  13.050    4.85    7.28   -0.06   0.000   0.200   0.000    0.00
  13.100    5.07    6.23   -0.08   0.000   0.200   0.000    0.00
  13.150    5.07    2.28   -0.48   0.000   0.200   0.000    0.00
  13.200    5.04    0.11   -0.12   0.000   0.200   0.000    0.00
  13.250    5.26   -6.52    0.19   0.000   0.200   0.000    0.00
  13.300    5.41   -3.52    0.37   0.000   0.200   0.000    0.00
  13.350    5.46    0.44    0.34   0.000   0.200   0.000    0.00
  13.400    5.94    1.87    0.34   0.000   0.200   0.000    0.00
  13.450    5.87    3.93   -0.13   0.000   0.200   0.000    0.00
  13.500    6.39    6.97   -0.07   0.000   0.200   0.000    0.00
  13.550    5.43   10.98   -0.37   0.000   0.200   0.000    0.00
  13.600    5.00   13.92   -0.45   0.000   0.200   0.000    0.00
  13.650    5.01   15.19    0.07   0.000   0.200   0.000    0.00
  13.700    5.16   13.99    0.06   0.000   0.200   0.000    0.00
  13.750    5.54   11.94   -0.08   0.000   0.200   0.000    0.00
  13.800    5.65    4.28    0.11   0.000   0.200   0.000    0.00
  13.850    5.82   12.78   -0.14   0.000   0.200   0.000    0.00
  13.900    5.57   17.73    0.26   0.000   0.200   0.000    0.00
  13.950    5.31   19.87    0.25   0.000   0.200   0.000    0.00
  14.000    5.24   21.55   -0.02   0.000   0.200   0.000    0.00
  14.050    5.00   17.91    0.00   0.000   0.200   0.000    0.00
  14.100    4.47   27.53   -0.16   0.000   0.200   0.000    0.00
  14.150    4.78   33.82   -0.07   0.000   0.200   0.000    0.00
  14.200    4.74   25.19   -0.11   0.000   0.200   0.000    0.00
  14.250    4.45   16.11   -0.79   0.000   0.200   0.000    0.00
  14.300    4.48   17.44   -0.92   0.000   0.200   0.000    0.00
  14.350    4.47    8.30   -0.68   0.000   0.200   0.000    0.00
  14.400    4.48    3.89   -0.56   0.000   0.200   0.000    0.00
  14.450    4.61    9.82   -0.39   0.000   0.200   0.000    0.00
  14.500    4.89   10.59   -0.44   0.000   0.200   0.000    0.00
  14.550    5.31    7.46   -0.34   0.000   0.200   0.000    0.00
  14.600    4.98    4.78   -0.77   0.000   0.200   0.000    0.00
  14.650    5.02    8.91   -0.74   0.000   0.200   0.000    0.00
  14.700    5.14    8.72   -1.21   0.000   0.200   0.000    0.00
  14.750    4.90    3.94   -1.35   0.000   0.200   0.000    0.00
  14.800    4.62    5.03   -1.37   0.000   0.200   0.000    0.00
  14.850    4.80   10.63   -1.24   0.000   0.200   0.000    0.00
  14.900    4.36   19.71   -0.77   0.000   0.200   0.000    0.00
  14.950    3.99   20.57   -1.15   0.000   0.200   0.000    0.00
  15.000    4.34   22.34   -1.83   0.000   0.200   0.000    0.00
  15.050    4.17   16.46   -1.90   0.000   0.200   0.000    0.00
  15.100    4.19    7.79   -1.99   0.000   0.200   0.000    0.00
  15.150    4.65   10.36   -1.56   0.000   0.200   0.000    0.00
  15.200    4.25   10.93   -2.25   0.000   0.200   0.000    0.00
  15.250    3.87    5.51   -2.10   0.000   0.200   0.000    0.00
  15.300    3.97    0.49   -1.50   0.000   0.200   0.000    0.00
  15.350    4.85   -2.59   -0.69   0.000   0.200   0.000    0.00
  15.400    4.88   -7.20   -0.72   0.000   0.200   0.000    0.00
  15.450    5.30   -5.88   -1.04   0.000   0.200   0.000    0.00
  15.500    5.43   -1.64   -1.19   0.000   0.200   0.000    0.00
  15.550    5.43   -3.59   -1.72   0.000   0.200   0.000    0.00
  15.600    5.08   -7.08   -1.42   0.000   0.200   0.000    0.00
  15.650    4.83   -8.52   -1.61   0.000   0.200   0.000    0.00
  15.700    5.38   -5.38   -0.99   0.000   0.200   0.000    0.00
  15.750    5.47   -8.82   -1.13   0.000   0.200   0.000    0.00
  15.800    5.22  -13.83   -0.97   0.000   0.200   0.000    0.00
  15.850    5.51  -13.84   -0.32   0.000   0.200   0.000    0.00
  15.900    5.08  -20.61   -0.81   0.000   0.200   0.000    0.00
  15.950    5.45  -22.89   -0.42   0.000   0.200   0.000    0.00
  16.000    5.45  -25.25   -0.81   0.000   0.200   0.000    0.00
  16.050    5.14  -25.73   -1.14   0.000   0.200   0.000    0.00
  16.100    5.26  -27.14   -0.74   0.000   0.200   0.000    0.00
  16.150    4.96  -28.58   -1.05   0.000   0.200   0.000    0.00
  16.200    5.19  -26.09   -0.14   0.000   0.200   0.000    0.00
  16.250    5.30  -27.02    0.14   0.000   0.200   0.000    0.00
  16.300    5.68  -25.68    0.08   0.000   0.200   0.000    0.00
  16.350    5.82  -23.36   -0.26   0.000   0.200   0.000    0.00
  16.400    5.98  -20.82   -0.08   0.000   0.200   0.000    0.00
  16.450    6.28  -23.04    0.34   0.000   0.200   0.000    0.00
  16.500    5.73  -22.11    0.13   0.000   0.200   0.000    0.00
  16.550    5.57  -22.95   -0.11   0.000   0.200   0.000    0.00
  16.600    5.29  -22.50    0.06   0.000   0.200   0.000    0.00
  16.650    5.35  -19.74    0.37   0.000   0.200   0.000    0.00
  16.700    5.32  -20.70    0.47   0.000   0.200   0.000    0.00
  16.750    4.88  -18.71   -0.08   0.000   0.200   0.000    0.00
  16.800    4.59  -17.65   -0.41   0.000   0.200   0.000    0.00
  16.850    4.65  -19.66   -0.47   0.000   0.200   0.000    0.00
  16.900    4.74  -13.84   -0.25   0.000   0.200   0.000    0.00
  16.950    5.44  -16.44    0.11   0.000   0.200   0.000    0.00
  17.000    5.79  -20.92   -0.37   0.000   0.200   0.000    0.00
  17.050    5.73  -20.85   -0.22   0.000   0.200   0.000    0.00
  17.100    6.01  -24.59   -0.06   0.000   0.200   0.000    0.00
  17.150    5.38  -28.08   -0.04   0.000   0.200   0.000    0.00
  17.200    4.99  -29.26    0.52   0.000   0.200   0.000    0.00
  17.250    4.81  -23.26    0.77   0.000   0.200   0.000    0.00
  17.300    5.11  -25.40    0.60   0.000   0.200   0.000    0.00
  17.350    4.61  -24.44    0.67   0.000   0.200   0.000    0.00
  17.400    4.25  -25.86    0.66   0.000   0.200   0.000    0.00
  17.450    4.03  -30.52    0.41   0.000   0.200   0.000    0.00
  17.500    4.88  -25.01    0.52   0.000   0.200   0.000    0.00
  17.550    5.04  -29.94    0.33   0.000   0.200   0.000    0.00
  17.600    4.59  -20.29    0.44   0.000   0.200   0.000    0.00
  17.650    4.20  -21.94    0.04   0.000   0.200   0.000    0.00
  17.700    4.09  -21.05    0.74   0.000   0.200   0.000    0.00
  17.750    3.98  -15.07    1.36   0.000   0.200   0.000    0.00
  17.800    3.76  -12.00    1.35   0.000   0.200   0.000    0.00
  17.850    3.82  -12.68    1.42   0.000   0.200   0.000    0.00
  17.900    4.47  -11.23    1.82   0.000   0.200   0.000    0.00
  17.950    4.68  -13.35    1.78   0.000   0.200   0.000    0.00
  18.000    4.67  -15.35    1.35   0.000   0.200   0.000    0.00
  18.050    4.48  -14.62    1.34   0.000   0.200   0.000    0.00
  18.100    4.42  -18.58    1.00   0.000   0.200   0.000    0.00
  18.150    4.51  -14.97    1.24   0.000   0.200   0.000    0.00
  18.200    4.61  -18.62    1.26   0.000   0.200   0.000    0.00
  18.250    4.78  -17.28    0.74   0.000   0.200   0.000    0.00
  18.300    5.37  -19.12    0.48   0.000   0.200   0.000    0.00
  18.350    5.24  -26.17    0.71   0.000   0.200   0.000    0.00
  18.400    5.22  -28.39    1.48   0.000   0.200   0.000    0.00
  18.450    5.47  -20.47    1.35   0.000   0.200   0.000    0.00
  18.500    5.22  -22.77    1.25   0.000   0.200   0.000    0.00
  18.550    5.66  -23.00    1.16   0.000   0.200   0.000    0.00
  18.600    5.96  -18.68    1.03   0.000   0.200   0.000    0.00
  18.650    6.08  -16.84    1.65   0.000   0.200   0.000    0.00
  18.700    6.30  -21.94    2.26   0.000   0.200   0.000    0.00
  18.750    5.85  -23.91    1.79   0.000   0.200   0.000    0.00
  18.800    5.92  -27.15    1.56   0.000   0.200   0.000    0.00
  18.850    5.91  -28.98    1.69   0.000   0.200   0.000    0.00
  18.900    6.20  -34.58    1.68   0.000   0.200   0.000    0.00
  18.950    5.74  -29.69    2.09   0.000   0.200   0.000    0.00
  19.000    5.38  -25.38    2.24   0.000   0.200   0.000    0.00
  19.050    5.62  -18.24    1.97   0.000   0.200   0.000    0.00
  19.100    6.16  -17.50    2.50   0.000   0.200   0.000    0.00
  19.150    5.43  -12.84    2.26   0.000   0.200   0.000    0.00
  19.200    6.04  -11.63    2.51   0.000   0.200   0.000    0.00
  19.250    6.14  -13.13    2.36   0.000   0.200   0.000    0.00
  19.300    5.80  -11.31    2.20   0.000   0.200   0.000    0.00
  19.350    5.70   -8.64    1.88   0.000   0.200   0.000    0.00
  19.400    5.35   -7.29    1.75   0.000   0.200   0.000    0.00
  19.450    5.46   -6.33    1.88   0.000   0.200   0.000    0.00
  19.500    5.28  -12.91    2.09   0.000   0.200   0.000    0.00
  19.550    5.51  -15.62    1.75   0.000   0.200   0.000    0.00
  19.600    5.66   -6.62    1.83   0.000   0.200   0.000    0.00
  19.650    5.38   -3.00    1.30   0.000   0.200   0.000    0.00
  19.700    5.34   -5.22    1.32   0.000   0.200   0.000    0.00
  19.750    5.36   -5.10    1.70   0.000   0.200   0.000    0.00
  19.800    5.40   -4.82    2.07   0.000   0.200   0.000    0.00
  19.850    5.82   -9.95    2.36   0.000   0.200   0.000    0.00
  19.900    5.44   -7.24    2.13   0.000   0.200   0.000    0.00
  19.950    6.08   -5.03    2.41   0.000   0.200   0.000    0.00
  20.000    6.09   -5.24    2.29   0.000   0.200   0.000    0.00
  20.050    6.21   -4.65    2.00   0.000   0.200   0.000    0.00
  20.100    6.37   -5.99    1.21   0.000   0.200   0.000    0.00
  20.150    5.73   -7.52    1.03   0.000   0.200   0.000    0.00
  20.200    5.60   -5.10    1.10   0.000   0.200   0.000    0.00
  20.250    5.72  -11.32    1.38   0.000   0.200   0.000    0.00
  20.300    5.62  -13.02    1.32   0.000   0.200   0.000    0.00
  20.350    5.54  -13.57    1.51   0.000   0.200   0.000    0.00
  20.400    5.78  -11.01    1.59   0.000   0.200   0.000    0.00
  20.450    5.94  -13.00    1.67   0.000   0.200   0.000    0.00
  20.500    5.52  -11.80    1.76   0.000   0.200   0.000    0.00
  20.550    5.94  -14.61    1.46   0.000   0.200   0.000    0.00
  20.600    6.20  -12.71    0.58   0.000   0.200   0.000    0.00
  20.650    6.13  -11.24    0.63   0.000   0.200   0.000    0.00
  20.700    6.49   -9.75    0.30   0.000   0.200   0.000    0.00
  20.750    6.40   -8.11    0.74   0.000   0.200   0.000    0.00
  20.800    6.68  -11.85   -0.01   0.000   0.200   0.000    0.00
  20.850    6.91  -10.53   -0.37   0.000   0.200   0.000    0.00
  20.900    6.97   -8.79    0.05   0.000   0.200   0.000    0.00
  20.950    6.85   -5.91    0.35   0.000   0.200   0.000    0.00
  21.000    7.38   -4.30   -0.01   0.000   0.200   0.000    0.00
  21.050    7.35   -5.92   -0.20   0.000   0.200   0.000    0.00
  21.100    7.26   -2.90   -0.24   0.000   0.200   0.000    0.00
  21.150    7.46   -3.91   -0.43   0.000   0.200   0.000    0.00
  21.200    7.56   -4.66   -0.14   0.000   0.200   0.000    0.00
  21.250    7.99   -5.43   -0.21   0.000   0.200   0.000    0.00
  21.300    7.82   -5.27    0.05   0.000   0.200   0.000    0.00
  21.350    8.02  -10.44    0.56   0.000   0.200   0.000    0.00
  21.400    8.55  -12.00    0.48   0.000   0.200   0.000    0.00
  21.450    8.25  -13.44    0.26   0.000   0.200   0.000    0.00
  21.500    8.47  -10.57    0.35   0.000   0.200   0.000    0.00
  21.550    7.88  -11.31    0.04   0.000   0.200   0.000    0.00
  21.600    8.09   -9.25    0.40   0.000   0.200   0.000    0.00
  21.650    8.36   -8.58    0.46   0.000   0.200   0.000    0.00
  21.700    7.96   -9.55    0.70   0.000   0.200   0.000    0.00
  21.750    7.41  -12.55    0.89   0.000   0.200   0.000    0.00
  21.800    7.04  -14.68    1.23   0.000   0.200   0.000    0.00
  21.850    6.92  -17.99    1.28   0.000   0.200   0.000    0.00
  21.900    7.01  -17.96    0.86   0.000   0.200   0.000    0.00
  21.950    6.92  -15.96    1.17   0.000   0.200   0.000    0.00
  22.000    6.93  -15.91    1.50   0.000   0.200   0.000    0.00
  22.050    7.09  -16.60    1.18   0.000   0.200   0.000    0.00
  22.100    7.11  -15.88    0.99   0.000   0.200   0.000    0.00
  22.150    7.20  -14.64    1.36   0.000   0.200   0.000    0.00
  22.200    7.37  -11.39    1.29   0.000   0.200   0.000    0.00
  22.250    7.15  -11.20    0.80   0.000   0.200   0.000    0.00
  22.300    7.31  -11.10    0.97   0.000   0.200   0.000    0.00
  22.350    7.42   -6.36    0.19   0.000   0.200   0.000    0.00