! This hub-height wind-speed file was generated by TurbSim (v1.06.00, 21-Sep-2012) on 03-Feb-2018 at 23:34:41.
!
! The requested statistics for this data were:
!    Mean Total Wind Speed =   21.000 m/s
!    Turbulence Intensity  =   14.233%
!
!   Time  HorSpd  WndDir  VerSpd  HorShr  VerShr  LnVShr  GstSpd
!  (sec)   (m/s)   (deg)   (m/s)     (-)     (-)     (-)   (m/s)
   0.000   20.86    5.09   -2.34   0.000   0.200   0.000    0.00
   0.050   20.08    8.37   -3.16   0.000   0.200   0.000    0.00
   0.100   20.00    7.43   -2.56   0.000   0.200   0.000    0.00
   0.150   20.28    4.49   -2.85   0.000   0.200   0.000    0.00
   0.200   20.71    5.54   -2.38   0.000   0.200   0.000    0.00
   0.250   21.26    0.85   -3.19   0.000   0.200   0.000    0.00
   0.300   21.68    2.41   -3.30   0.000   0.200   0.000    0.00
   0.350   21.50    2.83   -2.22   0.000   0.200   0.000    0.00
   0.400   21.45    1.50   -2.03   0.000   0.200   0.000    0.00
   0.450   21.58    3.26   -1.73   0.000   0.200   0.000    0.00
   0.500   21.95    5.60   -1.95   0.000   0.200   0.000    0.00
   0.550   21.76    5.50   -1.56   0.000   0.200   0.000    0.00
   0.600   22.49    6.28   -1.55   0.000   0.200   0.000    0.00
   0.650   23.07    2.24   -1.16   0.000   0.200   0.000    0.00
   0.700   23.51   -0.50   -1.01   0.000   0.200   0.000    0.00
   0.750   24.65    1.66   -0.59   0.000   0.200   0.000    0.00
   0.800   24.54    1.76   -1.06   0.000   0.200   0.000    0.00
   0.850   24.14    1.21   -1.51   0.000   0.200   0.000    0.00
   0.900   23.80    1.93   -0.09   0.000   0.200   0.000    0.00
   0.950   22.80    3.80    0.13   0.000   0.200   0.000    0.00
   1.000   22.87    2.27   -0.71   0.000   0.200   0.000    0.00
   1.050   22.73    3.59   -0.56   0.000   0.200   0.000    0.00
   1.100   22.12    2.98    0.33   0.000   0.200   0.000    0.00
   1.150   22.47    5.16    0.52   0.000   0.200   0.000    0.00
   1.200   22.88    6.71    0.15   0.000   0.200   0.000    0.00
   1.250   22.28    8.92   -0.12   0.000   0.200   0.000    0.00
   1.300   21.97    6.59    0.10   0.000   0.200   0.000    0.00
   1.350   22.06    6.35    0.07   0.000   0.200   0.000    0.00
   1.400   21.15    5.99   -0.73   0.000   0.200   0.000    0.00
   1.450   21.21    7.26   -1.02   0.000   0.200   0.000    0.00
   1.500   21.05    5.89   -1.66   0.000   0.200   0.000    0.00
   1.550   21.80    4.37   -2.91   0.000   0.200   0.000    0.00
   1.600   22.34    4.38   -3.75   0.000   0.200   0.000    0.00
   1.650   21.20    6.07   -3.39   0.000   0.200   0.000    0.00
   1.700   21.04    4.45   -2.53   0.000   0.200   0.000    0.00
   1.750   21.90    4.73   -1.96   0.000   0.200   0.000    0.00
   1.800   22.55    4.17   -0.99   0.000   0.200   0.000    0.00
   1.850   22.60    5.01   -0.91   0.000   0.200   0.000    0.00
   1.900   22.86    8.04   -0.39   0.000   0.200   0.000    0.00
   1.950   22.74    6.71   -1.01   0.000   0.200   0.000    0.00
   2.000   22.43    5.38   -0.85   0.000   0.200   0.000    0.00
   2.050   22.53    5.70    0.02   0.000   0.200   0.000    0.00
   2.100   21.71    2.62    0.79   0.000   0.200   0.000    0.00
   2.150   21.25    4.10    1.47   0.000   0.200   0.000    0.00
   2.200   21.77    5.56    2.84   0.000   0.200   0.000    0.00
   2.250   21.22    2.09    3.40   0.000   0.200   0.000    0.00
   2.300   21.32    3.57    2.54   0.000   0.200   0.000    0.00
   2.350   20.95    4.38    1.43   0.000   0.200   0.000    0.00
   2.400   20.53    3.41    1.48   0.000   0.200   0.000    0.00
   2.450   20.40   -0.27    1.07   0.000   0.200   0.000    0.00
   2.500   20.54   -0.01    0.51   0.000   0.200   0.000    0.00
   2.550   21.29   -0.67   -0.03   0.000   0.200   0.000    0.00
   2.600   21.45    0.51    0.35   0.000   0.200   0.000    0.00
   2.650   22.19    1.02    0.81   0.000   0.200   0.000    0.00
   2.700   22.36   -0.04    0.75   0.000   0.200   0.000    0.00
   2.750   22.41   -1.83    0.59   0.000   0.200   0.000    0.00
   2.800   21.08   -0.57    1.09   0.000   0.200   0.000    0.00
   2.850   21.10    0.39    0.90   0.000   0.200   0.000    0.00
   2.900   20.47    3.08    0.99   0.000   0.200   0.000    0.00
   2.950   19.89    2.41    1.64   0.000   0.200   0.000    0.00
   3.000   20.35    0.36    1.58   0.000   0.200   0.000    0.00
   3.050   20.09    0.98    2.13   0.000   0.200   0.000    0.00
   3.100   20.05    1.38    1.83   0.000   0.200   0.000    0.00
   3.150   21.10    0.07    3.77   0.000   0.200   0.000    0.00
   3.200   20.52    0.36    3.23   0.000   0.200   0.000    0.00
   3.250   20.08   -0.31    3.83   0.000   0.200   0.000    0.00
   3.300   19.98   -1.41    4.69   0.000   0.200   0.000    0.00
   3.350   20.09    0.72    4.68   0.000   0.200   0.000    0.00
   3.400   19.92    1.73    4.06   0.000   0.200   0.000    0.00
   3.450   19.79    1.93    3.70   0.000   0.200   0.000    0.00
   3.500   19.03    1.04    3.62   0.000   0.200   0.000    0.00
   3.550   18.97    0.42    3.43   0.000   0.200   0.000    0.00
   3.600   18.93   -1.62    2.31   0.000   0.200   0.000    0.00
   3.650   19.90   -2.76    1.92   0.000   0.200   0.000    0.00
   3.700   20.55   -3.68    2.11   0.000   0.200   0.000    0.00
   3.750   20.32    0.28    1.99   0.000   0.200   0.000    0.00
   3.800   20.98    1.27    1.29   0.000   0.200   0.000    0.00
   3.850   20.86   -0.12    2.14   0.000   0.200   0.000    0.00
   3.900   20.41    0.84    1.67   0.000   0.200   0.000    0.00
   3.950   20.95    0.90    1.83   0.000   0.200   0.000    0.00
   4.000   21.30    0.93    2.28   0.000   0.200   0.000    0.00
   4.050   21.42    2.23    2.29   0.000   0.200   0.000    0.00
   4.100   21.97    0.25    2.35   0.000   0.200   0.000    0.00
   4.150   22.19   -1.10    1.81   0.000   0.200   0.000    0.00
   4.200   21.76   -1.65    2.40   0.000   0.200   0.000    0.00
   4.250   22.56    1.02    2.59   0.000   0.200   0.000    0.00
   4.300   22.39   -0.65    2.89   0.000   0.200   0.000    0.00
   4.350   22.80   -0.55    3.06   0.000   0.200   0.000    0.00
   4.400   22.66   -0.81    2.88   0.000   0.200   0.000    0.00
   4.450   22.03   -2.03    2.37   0.000   0.200   0.000    0.00
   4.500   21.74   -1.99    1.29   0.000   0.200   0.000    0.00
   4.550   21.86   -3.18    0.95   0.000   0.200   0.000    0.00
   4.600   22.27   -3.64   -0.22   0.000   0.200   0.000    0.00
   4.650   21.25   -1.43    1.34   0.000   0.200   0.000    0.00
   4.700   20.06    1.94    0.53   0.000   0.200   0.000    0.00
   4.750   20.43    0.47    1.41   0.000   0.200   0.000    0.00
   4.800   20.22   -0.43    1.14   0.000   0.200   0.000    0.00
   4.850   19.76    1.82    1.14   0.000   0.200   0.000    0.00
   4.900   19.39   -0.12    2.16   0.000   0.200   0.000    0.00
   4.950   19.60   -0.06    1.97   0.000   0.200   0.000    0.00
   5.000   19.45    1.62    1.87   0.000   0.200   0.000    0.00
   5.050   19.78    2.62    0.77   0.000   0.200   0.000    0.00
   5.100   19.48   -0.71    0.31   0.000   0.200   0.000    0.00
   5.150   18.97   -0.14    0.23   0.000   0.200   0.000    0.00
   5.200   20.31    0.19    0.49   0.000   0.200   0.000    0.00
   5.250   19.55    0.38    1.40   0.000   0.200   0.000    0.00
   5.300   18.75    2.98    1.99   0.000   0.200   0.000    0.00
   5.350   19.49    4.17    1.15   0.000   0.200   0.000    0.00
   5.400   19.94    3.92    1.92   0.000   0.200   0.000    0.00
   5.450   19.03    2.92    2.07   0.000   0.200   0.000    0.00
   5.500   19.20    1.72    1.08   0.000   0.200   0.000    0.00
   5.550   18.91    1.26    1.59   0.000   0.200   0.000    0.00
   5.600   18.88    4.85    1.63   0.000   0.200   0.000    0.00
   5.650   19.29    7.26    1.84   0.000   0.200   0.000    0.00
   5.700   19.43    8.11    1.98   0.000   0.200   0.000    0.00
   5.750   19.57   10.19    1.63   0.000   0.200   0.000    0.00
   5.800   20.41   15.91    0.33   0.000   0.200   0.000    0.00
   5.850   20.45   12.93   -0.06   0.000   0.200   0.000    0.00
   5.900   19.98   13.04    0.27   0.000   0.200   0.000    0.00
   5.950   19.95   14.11   -0.80   0.000   0.200   0.000    0.00
   6.000   19.13   14.06   -0.66   0.000   0.200   0.000    0.00
   6.050   19.33   13.41   -1.11   0.000   0.200   0.000    0.00
   6.100   18.90   13.38   -0.88   0.000   0.200   0.000    0.00
   6.150   18.96   11.73   -0.69   0.000   0.200   0.000    0.00
   6.200   18.74   11.52    0.56   0.000   0.200   0.000    0.00
   6.250   18.91   11.28   -0.11   0.000   0.200   0.000    0.00
   6.300   18.50   11.81   -0.45   0.000   0.200   0.000    0.00
   6.350   18.40    9.53   -0.56   0.000   0.200   0.000    0.00
   6.400   17.92   12.64   -0.81   0.000   0.200   0.000    0.00
   6.450   17.55   13.04   -0.71   0.000   0.200   0.000    0.00
   6.500   17.31    9.73   -1.04   0.000   0.200   0.000    0.00
   6.550   15.91    9.30   -2.14   0.000   0.200   0.000    0.00
   6.600   15.89    9.10   -0.93   0.000   0.200   0.000    0.00
   6.650   16.65    8.32   -1.23   0.000   0.200   0.000    0.00
   6.700   16.93    8.49    0.00   0.000   0.200   0.000    0.00
   6.750   17.52    8.72    1.06   0.000   0.200   0.000    0.00
   6.800   17.06   10.62    0.86   0.000   0.200   0.000    0.00
   6.850   18.48   14.29    1.23   0.000   0.200   0.000    0.00
   6.900   18.02   14.68   -0.15   0.000   0.200   0.000    0.00
   6.950   19.01   17.93   -0.62   0.000   0.200   0.000    0.00
   7.000   18.60   20.10   -0.69   0.000   0.200   0.000    0.00
   7.050   19.30   21.78   -0.56   0.000   0.200   0.000    0.00
   7.100   19.70   20.12   -1.56   0.000   0.200   0.000    0.00
   7.150   19.66   18.42   -0.93   0.000   0.200   0.000    0.00
   7.200   19.76   18.52    0.24   0.000   0.200   0.000    0.00
   7.250   18.29   16.31   -0.01   0.000   0.200   0.000    0.00
   7.300   18.95   13.47    0.61   0.000   0.200   0.000    0.00
   7.350   19.76   13.20    0.93   0.000   0.200   0.000    0.00
   7.400   19.83   15.06    0.62   0.000   0.200   0.000    0.00
   7.450   20.60   15.08    1.13   0.000   0.200   0.000    0.00
   7.500   20.51   16.21    0.78   0.000   0.200   0.000    0.00
   7.550   20.14   13.50    1.89   0.000   0.200   0.000    0.00
   7.600   19.75   10.23    2.33   0.000   0.200   0.000    0.00
   7.650   19.87   13.91    2.48   0.000   0.200   0.000    0.00
   7.700   18.58   10.91    3.23   0.000   0.200   0.000    0.00
   7.750   18.39   10.74    3.03   0.000   0.200   0.000    0.00
   7.800   18.32    8.19    2.45   0.000   0.200   0.000    0.00
   7.850   18.86    7.84    2.18   0.000   0.200   0.000    0.00
   7.900   19.70    8.14    2.15   0.000   0.200   0.000    0.00
   7.950   19.31    6.82    1.89   0.000   0.200   0.000    0.00
   8.000   19.80    6.19    2.51   0.000   0.200   0.000    0.00
   8.050   19.85    4.76    1.59   0.000   0.200   0.000    0.00
   8.100   20.15    6.64    0.58   0.000   0.200   0.000    0.00
   8.150   20.14    5.79    1.87   0.000   0.200   0.000    0.00
   8.200   19.03    3.97    2.17   0.000   0.200   0.000    0.00
   8.250   19.65    3.12    1.35   0.000   0.200   0.000    0.00
   8.300   20.86    3.20    0.49   0.000   0.200   0.000    0.00
   8.350   20.18    4.74    0.01   0.000   0.200   0.000    0.00
   8.400   19.92    1.47    0.61   0.000   0.200   0.000    0.00
   8.450   20.69    4.93    1.07   0.000   0.200   0.000    0.00
   8.500   20.58    4.60    2.02   0.000   0.200   0.000    0.00
   8.550   19.98    3.19    2.72   0.000   0.200   0.000    0.00
   8.600   20.36    4.39    1.40   0.000   0.200   0.000    0.00
   8.650   20.65    3.29    1.92   0.000   0.200   0.000    0.00
   8.700   20.80    1.98    2.20   0.000   0.200   0.000    0.00
   8.750   20.11    1.05    2.42   0.000   0.200   0.000    0.00
   8.800   20.18    0.90    1.83   0.000   0.200   0.000    0.00
   8.850   19.96    0.68    1.50   0.000   0.200   0.000    0.00
   8.900   20.51   -0.56    1.49   0.000   0.200   0.000    0.00
   8.950   20.39    1.48    0.75   0.000   0.200   0.000    0.00
   9.000   19.71    1.26    1.47   0.000   0.200   0.000    0.00
   9.050   20.14    4.30    1.93   0.000   0.200   0.000    0.00
   9.100   20.32    1.25    1.62   0.000   0.200   0.000    0.00
   9.150   19.96    1.07    1.79   0.000   0.200   0.000    0.00
   9.200   20.08    1.58    2.51   0.000   0.200   0.000    0.00
   9.250   20.41    0.18    1.51   0.000   0.200   0.000    0.00
   9.300   20.44    0.21    1.65   0.000   0.200   0.000    0.00
   9.350   19.83   -1.55    1.25   0.000   0.200   0.000    0.00
   9.400   19.61    1.36    1.46   0.000   0.200   0.000    0.00
   9.450   19.17    3.31    1.89   0.000   0.200   0.000    0.00
   9.500   19.82    4.03    1.25   0.000   0.200   0.000    0.00
   9.550   19.77    3.18    1.76   0.000   0.200   0.000    0.00
   9.600   20.60    2.26    2.06   0.000   0.200   0.000    0.00
   9.650   20.08    3.04    2.24   0.000   0.200   0.000    0.00
   9.700   19.04    3.55    1.34   0.000   0.200   0.000    0.00
   9.750   19.00    2.89   -0.37   0.000   0.200   0.000    0.00
   9.800   17.98    3.67   -0.35   0.000   0.200   0.000    0.00
   9.850   17.42    3.16   -0.76   0.000   0.200   0.000    0.00
   9.900   17.37    4.58   -0.14   0.000   0.200   0.000    0.00
   9.950   17.06    7.79   -0.25   0.000   0.200   0.000    0.00
  10.000   17.05   11.10    0.14   0.000   0.200   0.000    0.00
  10.050   16.50   11.81   -0.49   0.000   0.200   0.000    0.00
  10.100   17.11   13.68   -0.57   0.000   0.200   0.000    0.00
  10.150   17.92    9.90    0.30   0.000   0.200   0.000    0.00
  10.200   18.44    6.94    0.11   0.000   0.200   0.000    0.00
  10.250   17.99    5.10    1.23   0.000   0.200   0.000    0.00
  10.300   18.26    4.54    1.87   0.000   0.200   0.000    0.00
  10.350   18.14    4.11    0.96   0.000   0.200   0.000    0.00
  10.400   18.72    3.79    0.27   0.000   0.200   0.000    0.00
  10.450   18.52    5.31    1.90   0.000   0.200   0.000    0.00
  10.500   18.98    8.78    1.65   0.000   0.200   0.000    0.00
  10.550   18.93    7.89    1.54   0.000   0.200   0.000    0.00
  10.600   18.82    8.82    2.13   0.000   0.200   0.000    0.00
  10.650   18.40   10.55    2.68   0.000   0.200   0.000    0.00
  10.700   18.22   12.36    2.49   0.000   0.200   0.000    0.00
  10.750   18.66    8.53    1.99   0.000   0.200   0.000    0.00
  10.800   18.51   11.86    1.57   0.000   0.200   0.000    0.00
  10.850   17.94   11.94    0.59   0.000   0.200   0.000    0.00
  10.900   18.20   10.68    0.73   0.000   0.200   0.000    0.00
  10.950   19.04   12.67    0.92   0.000   0.200   0.000    0.00
  11.000   17.63   10.60    1.12   0.000   0.200   0.000    0.00
  11.050   18.00   10.96    0.28   0.000   0.200   0.000    0.00
  11.100   18.64   14.36    0.18   0.000   0.200   0.000    0.00
  11.150   18.15   13.32    0.45   0.000   0.200   0.000    0.00
  11.200   17.56   12.73    0.95   0.000   0.200   0.000    0.00
  11.250   17.52   14.50    0.88   0.000   0.200   0.000    0.00
  11.300   18.16   16.33    0.85   0.000   0.200   0.000    0.00
  11.350   17.84   16.63    1.25   0.000   0.200   0.000    0.00
  11.400   17.51   16.34    0.86   0.000   0.200   0.000    0.00
  11.450   16.85   15.46    0.10   0.000   0.200   0.000    0.00
  11.500   16.83   17.84   -0.20   0.000   0.200   0.000    0.00
  11.550   18.42   16.89    0.13   0.000   0.200   0.000    0.00
  11.600   17.54   13.39    0.25   0.000   0.200   0.000    0.00
  11.650   18.40   13.14   -0.52   0.000   0.200   0.000    0.00
  11.700   17.91   11.12   -0.57   0.000   0.200   0.000    0.00
  11.750   17.87   11.49   -0.64   0.000   0.200   0.000    0.00
  11.800   18.27   10.39   -1.04   0.000   0.200   0.000    0.00
  11.850   18.04    7.44   -1.18   0.000   0.200   0.000    0.00
  11.900   18.52   10.04   -0.31   0.000   0.200   0.000    0.00
  11.950   17.59    7.10   -0.34   0.000   0.200   0.000    0.00
  12.000   17.91    6.26   -0.54   0.000   0.200   0.000    0.00
  12.050   17.31    7.14    0.06   0.000   0.200   0.000    0.00
  12.100   17.23    6.48    0.58   0.000   0.200   0.000    0.00
  12.150   17.36    2.45    1.22   0.000   0.200   0.000    0.00
  12.200   17.55    2.22    0.79   0.000   0.200   0.000    0.00
  12.250   17.65    2.82    0.67   0.000   0.200   0.000    0.00
  12.300   17.82    2.10    0.66   0.000   0.200   0.000    0.00
  12.350   18.23    2.87    0.31   0.000   0.200   0.000    0.00
  12.400   18.53    0.02    1.29   0.000   0.200   0.000    0.00
  12.450   17.94    0.30    1.46   0.000   0.200   0.000    0.00
  12.500   17.02    1.34    1.52   0.000   0.200   0.000    0.00
  12.550   15.98    6.57    1.39   0.000   0.200   0.000    0.00
  12.600   16.08    7.80    1.81   0.000   0.200   0.000    0.00
  12.650   15.41   12.02    2.29   0.000   0.200   0.000    0.00
  12.700   15.32   10.26    1.39   0.000   0.200   0.000    0.00
  12.750   15.87    9.73    1.24   0.000   0.200   0.000    0.00
  12.800   15.65   10.86    1.22   0.000   0.200   0.000    0.00
  12.850   15.47   11.10    0.81   0.000   0.200   0.000    0.00
  12.900   15.11    7.42    0.63   0.000   0.200   0.000    0.00
  12.950   15.06    8.02    0.50   0.000   0.200   0.000    0.00
  13.000   15.03    8.42    0.17   0.000   0.200   0.000    0.00
  13.050   13.73    7.04    1.41   0.000   0.200   0.000    0.00
  13.100   14.58    4.92   -0.38   0.000   0.200   0.000    0.00
  13.150   14.20    2.59   -0.18   0.000   0.200   0.000    0.00
  13.200   15.11    5.16   -0.22   0.000   0.200   0.000    0.00
  13.250   15.88    2.87   -0.63   0.000   0.200   0.000    0.00
  13.300   17.20    4.38   -1.09   0.000   0.200   0.000    0.00
  13.350   16.13    2.09   -0.59   0.000   0.200   0.000    0.00
  13.400   16.39    2.84   -1.48   0.000   0.200   0.000    0.00
  13.450   16.12    2.52   -1.61   0.000   0.200   0.000    0.00
  13.500   16.34    3.48   -1.76   0.000   0.200   0.000    0.00
  13.550   16.70    2.57   -2.61   0.000   0.200   0.000    0.00
  13.600   16.55    0.38   -3.07   0.000   0.200   0.000    0.00
  13.650   15.55    0.60   -2.01   0.000   0.200   0.000    0.00
  13.700   15.51    1.61   -1.37   0.000   0.200   0.000    0.00
  13.750   14.85    4.83   -1.50   0.000   0.200   0.000    0.00
  13.800   14.31    5.65   -1.04   0.000   0.200   0.000    0.00
  13.850   14.58    1.31   -1.47   0.000   0.200   0.000    0.00
  13.900   15.71    0.90   -1.90   0.000   0.200   0.000    0.00
  13.950   15.88   -3.49   -2.60   0.000   0.200   0.000    0.00
  14.000   15.43   -2.20   -2.68   0.000   0.200   0.000    0.00
  14.050   15.17   -1.48   -2.07   0.000   0.200   0.000    0.00
  14.100   15.31   -4.60   -2.66   0.000   0.200   0.000    0.00
  14.150   15.02   -4.05   -2.40   0.000   0.200   0.000    0.00
  14.200   15.44   -1.49   -2.12   0.000   0.200   0.000    0.00
  14.250   16.44    0.06   -2.48   0.000   0.200   0.000    0.00
  14.300   15.89    0.22   -2.38   0.000   0.200   0.000    0.00
  14.350   17.09    0.70   -0.84   0.000   0.200   0.000    0.00
  14.400   17.16    1.58   -0.26   0.000   0.200   0.000    0.00
  14.450   16.40    0.21    0.60   0.000   0.200   0.000    0.00
  14.500   17.11   -1.01   -0.17   0.000   0.200   0.000    0.00
  14.550   16.62    1.42   -1.39   0.000   0.200   0.000    0.00
  14.600   16.13    4.15   -0.74   0.000   0.200   0.000    0.00
  14.650   15.00    8.97   -1.11   0.000   0.200   0.000    0.00
  14.700   15.28   10.37   -1.53   0.000   0.200   0.000    0.00
  14.750   15.16    7.12   -1.66   0.000   0.200   0.000    0.00
  14.800   15.14    5.71   -2.24   0.000   0.200   0.000    0.00
  14.850   15.19    2.82   -2.57   0.000   0.200   0.000    0.00
  14.900   16.21    3.42   -1.39   0.000   0.200   0.000    0.00
  14.950   15.80    3.89   -1.63   0.000   0.200   0.000    0.00
  15.000   16.94    6.33   -0.88   0.000   0.200   0.000    0.00
  15.050   17.11    8.98    0.68   0.000   0.200   0.000    0.00
  15.100   17.58    9.98    1.33   0.000   0.200   0.000    0.00
  15.150   18.93    8.55    2.02   0.000   0.200   0.000    0.00
  15.200   17.62    8.17    2.09   0.000   0.200   0.000    0.00
  15.250   17.44    7.36    1.75   0.000   0.200   0.000    0.00
  15.300   17.32    7.38    0.80   0.000   0.200   0.000    0.00
  15.350   17.67    7.26    0.44   0.000   0.200   0.000    0.00
  15.400   17.43    7.08   -0.22   0.000   0.200   0.000    0.00
  15.450   17.63    8.92   -0.23   0.000   0.200   0.000    0.00
  15.500   17.88   10.92    0.80   0.000   0.200   0.000    0.00
  15.550   17.61   10.71    0.40   0.000   0.200   0.000    0.00
  15.600   17.71    6.91   -0.72   0.000   0.200   0.000    0.00
  15.650   18.21    5.62    0.14   0.000   0.200   0.000    0.00
  15.700   18.91    6.63    0.23   0.000   0.200   0.000    0.00
  15.750   19.70    5.61   -0.36   0.000   0.200   0.000    0.00
  15.800   19.56    0.58   -0.67   0.000   0.200   0.000    0.00
  15.850   20.11    2.18   -0.08   0.000   0.200   0.000    0.00
  15.900   20.66    2.19    0.13   0.000   0.200   0.000    0.00
  15.950   21.46   -0.10    0.46   0.000   0.200   0.000    0.00
  16.000   20.51    0.63   -0.14   0.000   0.200   0.000    0.00
  16.050   20.81   -0.23   -0.05   0.000   0.200   0.000    0.00
  16.100   21.26   -4.68   -0.84   0.000   0.200   0.000    0.00
  16.150   22.50   -4.38   -0.46   0.000   0.200   0.000    0.00
  16.200   22.78   -8.52   -0.21   0.000   0.200   0.000    0.00
  16.250   21.43   -7.21    1.30   0.000   0.200   0.000    0.00
  16.300   20.60   -3.82    1.02   0.000   0.200   0.000    0.00
  16.350   20.68   -0.45   -0.21   0.000   0.200   0.000    0.00
  16.400   21.78   -0.89   -0.59   0.000   0.200   0.000    0.00
  16.450   21.33   -5.12    0.30   0.000   0.200   0.000    0.00
  16.500   21.47   -3.37   -0.35   0.000   0.200   0.000    0.00
  16.550   20.84   -1.65   -1.20   0.000   0.200   0.000    0.00
  16.600   21.00    0.51   -0.44   0.000   0.200   0.000    0.00
  16.650   21.77    0.14   -0.28   0.000   0.200   0.000    0.00
  16.700   21.44    0.01   -0.85   0.000   0.200   0.000    0.00
  16.750   21.92    0.08   -1.49   0.000   0.200   0.000    0.00
  16.800   22.11    1.55   -0.86   0.000   0.200   0.000    0.00
  16.850   20.76    2.25    0.18   0.000   0.200   0.000    0.00
  16.900   20.36    0.84    0.93   0.000   0.200   0.000    0.00
  16.950   19.89    2.25   -0.51   0.000   0.200   0.000    0.00
  17.000   19.98   -0.13   -1.72   0.000   0.200   0.000    0.00
  17.050   20.18    3.90   -1.44   0.000   0.200   0.000    0.00
  17.100   20.10    1.09   -0.82   0.000   0.200   0.000    0.00
  17.150   20.00   -1.18   -0.87   0.000   0.200   0.000    0.00
  17.200   20.13   -0.37   -1.18   0.000   0.200   0.000    0.00
  17.250   20.27   -2.60   -1.25   0.000   0.200   0.000    0.00
  17.300   19.66   -4.86   -0.24   0.000   0.200   0.000    0.00
  17.350   19.81   -4.94    0.03   0.000   0.200   0.000    0.00
  17.400   19.35   -4.27    0.28   0.000   0.200   0.000    0.00
  17.450   19.89   -4.65    0.30   0.000   0.200   0.000    0.00
  17.500   19.51   -5.93    0.42   0.000   0.200   0.000    0.00
  17.550   18.67   -4.94    0.61   0.000   0.200   0.000    0.00
  17.600   19.19   -4.05   -0.13   0.000   0.200   0.000    0.00
  17.650   19.30   -5.50    0.62   0.000   0.200   0.000    0.00
  17.700   19.67   -4.91    0.27   0.000   0.200   0.000    0.00
  17.750   19.86   -6.28    0.27   0.000   0.200   0.000    0.00
  17.800   19.85   -8.70    0.01   0.000   0.200   0.000    0.00
  17.850   19.04  -11.62    0.31   0.000   0.200   0.000    0.00
  17.900   18.91  -10.64   -0.48   0.000   0.200   0.000    0.00
  17.950   18.41   -8.16    0.53   0.000   0.200   0.000    0.00
  18.000   18.59   -8.03    0.18   0.000   0.200   0.000    0.00
  18.050   18.10   -9.06    0.67   0.000   0.200   0.000    0.00
  18.100   17.40   -6.43    0.66   0.000   0.200   0.000    0.00
  18.150   16.72   -5.19   -0.47   0.000   0.200   0.000    0.00
  18.200   17.16   -6.54   -0.63   0.000   0.200   0.000    0.00
  18.250   17.65   -2.10   -1.36   0.000   0.200   0.000    0.00
  18.300   17.48   -3.67   -1.36   0.000   0.200   0.000    0.00
  18.350   18.38   -1.55   -2.05   0.000   0.200   0.000    0.00
  18.400   18.07   -0.92   -1.73   0.000   0.200   0.000    0.00
  18.450   18.13    1.43   -1.49   0.000   0.200   0.000    0.00
  18.500   18.15   -0.67   -0.92   0.000   0.200   0.000    0.00
  18.550   18.31    2.51   -0.87   0.000   0.200   0.000    0.00
  18.600   17.55    0.19    0.39   0.000   0.200   0.000    0.00
  18.650   17.90   -3.64    0.60   0.000   0.200   0.000    0.00
  18.700   18.47   -3.52   -0.40   0.000   0.200   0.000    0.00
  18.750   18.80   -5.29    0.58   0.000   0.200   0.000    0.00
  18.800   18.05   -4.90    1.63   0.000   0.200   0.000    0.00
  18.850   17.80   -7.39    1.63   0.000   0.200   0.000    0.00
  18.900   18.62   -7.32    0.88   0.000   0.200   0.000    0.00
  18.950   19.15   -6.45    0.41   0.000   0.200   0.000    0.00
  19.000   19.46   -5.46    0.40   0.000   0.200   0.000    0.00
  19.050   19.00   -6.77   -0.01   0.000   0.200   0.000    0.00
  19.100   18.51   -6.51    0.14   0.000   0.200   0.000    0.00
  19.150   18.80   -3.00    0.02   0.000   0.200   0.000    0.00
  19.200   17.73   -8.00    1.04   0.000   0.200   0.000    0.00
  19.250   17.90   -6.24    0.77   0.000   0.200   0.000    0.00
  19.300   18.22   -5.59    0.48   0.000   0.200   0.000    0.00
  19.350   18.75   -4.45    0.46   0.000   0.200   0.000    0.00
  19.400   18.98   -3.93    1.28   0.000   0.200   0.000    0.00
  19.450   18.75   -4.15    1.88   0.000   0.200   0.000    0.00
  19.500   18.28   -3.29    0.85   0.000   0.200   0.000    0.00
  19.550   18.32   -3.35   -0.22   0.000   0.200   0.000    0.00
  19.600   17.97   -2.45   -0.11   0.000   0.200   0.000    0.00
  19.650   17.49   -1.39    0.06   0.000   0.200   0.000    0.00
  19.700   17.97   -4.16    0.72   0.000   0.200   0.000    0.00
  19.750   17.33   -3.72   -0.05   0.000   0.200   0.000    0.00
  19.800   17.70   -6.48   -0.11   0.000   0.200   0.000    0.00
  19.850   17.36   -5.42   -0.11   0.000   0.200   0.000    0.00
  19.900   17.18   -4.68    0.29   0.000   0.200   0.000    0.00
  19.950   16.94   -8.85    0.15   0.000   0.200   0.000    0.00
  20.000   16.96   -9.13    0.40   0.000   0.200   0.000    0.00
  20.050   15.75  -10.83   -0.47   0.000   0.200   0.000    0.00
  20.100   15.24  -11.45   -1.14   0.000   0.200   0.000    0.00
  20.150   15.52  -13.47   -0.85   0.000   0.200   0.000    0.00
  20.200   16.38  -11.66   -1.61   0.000   0.200   0.000    0.00
  20.250   16.59  -12.76   -1.12   0.000   0.200   0.000    0.00
  20.300   16.66  -12.87   -0.94   0.000   0.200   0.000    0.00
  20.350   17.18  -13.07   -1.62   0.000   0.200   0.000    0.00
  20.400   17.55  -12.06   -1.16   0.000   0.200   0.000    0.00
  20.450   17.50   -7.73    0.15   0.000   0.200   0.000    0.00
  20.500   17.78   -7.40   -1.42   0.000   0.200   0.000    0.00
  20.550   18.06   -8.01   -0.73   0.000   0.200   0.000    0.00
  20.600   19.16   -9.19   -1.45   0.000   0.200   0.000    0.00
  20.650   17.97   -9.27   -1.31   0.000   0.200   0.000    0.00
  20.700   17.79   -9.90   -0.23   0.000   0.200   0.000    0.00
  20.750   17.48   -6.47   -0.66   0.000   0.200   0.000    0.00
  20.800   18.07   -7.22   -1.15   0.000   0.200   0.000    0.00
  20.850   17.72   -7.37   -1.34   0.000   0.200   0.000    0.00
  20.900   18.58   -9.25   -1.77   0.000   0.200   0.000    0.00
  20.950   17.16   -7.87   -2.55   0.000   0.200   0.000    0.00
  21.000   16.74   -5.94   -1.63   0.000   0.200   0.000    0.00
  21.050   15.95   -6.29   -1.08   0.000   0.200   0.000    0.00
  21.100   16.55   -6.01   -0.53   0.000   0.200   0.000    0.00
  21.150   16.92   -7.87   -0.44   0.000   0.200   0.000    0.00
  21.200   16.42  -11.40   -1.21   0.000   0.200   0.000    0.00
  21.250   17.18  -14.11   -0.32   0.000   0.200   0.000    0.00
  21.300   17.09  -11.69   -0.90   0.000   0.200   0.000    0.00
  21.350   18.00  -10.17   -0.23   0.000   0.200   0.000    0.00
  21.400   18.61   -7.54   -0.42   0.000   0.200   0.000    0.00
  21.450   18.05   -5.56   -1.11   0.000   0.200   0.000    0.00
  21.500   18.61   -5.34   -1.90   0.000   0.200   0.000    0.00
  21.550   19.55   -8.35   -1.45   0.000   0.200   0.000    0.00
  21.600   19.17   -7.19   -1.31   0.000   0.200   0.000    0.00
  21.650   19.69   -2.54   -1.65   0.000   0.200   0.000    0.00
  21.700   18.95   -1.75   -1.51   0.000   0.200   0.000    0.00
  21.750   17.56   -1.88   -0.19   0.000   0.200   0.000    0.00
  21.800   17.57    0.04    0.79   0.000   0.200   0.000    0.00
  21.850   18.71   -1.44    1.01   0.000   0.200   0.000    0.00
  21.900   18.89   -2.81    1.11   0.000   0.200   0.000    0.00
  21.950   17.96    0.89    0.77   0.000   0.200   0.000    0.00
  22.000   18.04    5.24    0.61   0.000   0.200   0.000    0.00
  22.050   18.57    1.79    0.42   0.000   0.200   0.000    0.00
  22.100   18.75   -1.01    0.34   0.000   0.200   0.000    0.00
  22.150   19.17   -1.21    0.86   0.000   0.200   0.000    0.00
  22.200   19.89   -0.70    0.03   0.000   0.200   0.000    0.00
  22.250   20.72    3.53    0.34   0.000   0.200   0.000    0.00
  22.300   20.32    2.49    1.00   0.000   0.200   0.000    0.00
  22.350   19.84    2.05    0.99   0.000   0.200   0.000    0.00