! This hub-height wind-speed file was generated by TurbSim (v1.06.00, 21-Sep-2012) on 03-Feb-2018 at 23:32:35.
!
! The requested statistics for this data were:
!    Mean Total Wind Speed =    9.000 m/s
!    Turbulence Intensity  =   32.007%
!
!   Time  HorSpd  WndDir  VerSpd  HorShr  VerShr  LnVShr  GstSpd
!  (sec)   (m/s)   (deg)   (m/s)     (-)     (-)     (-)   (m/s)
   0.000   10.88   30.64   -1.52   0.000   0.200   0.000    0.00
   0.050   10.50   30.77   -1.42   0.000   0.200   0.000    0.00
   0.100   10.02   27.28   -1.15   0.000   0.200   0.000    0.00
   0.150   10.23   19.79   -1.06   0.000   0.200   0.000    0.00
   0.200   10.21   19.77   -1.46   0.000   0.200   0.000    0.00
   0.250   10.08   20.48   -0.58   0.000   0.200   0.000    0.00
   0.300   10.07   16.79   -0.22   0.000   0.200   0.000    0.00
   0.350   10.29   18.21    0.45   0.000   0.200   0.000    0.00
   0.400   10.34   19.47    1.13   0.000   0.200   0.000    0.00
   0.450   10.69   17.37    0.19   0.000   0.200   0.000    0.00
   0.500   11.40   19.57    0.23   0.000   0.200   0.000    0.00
   0.550   10.81   19.29    0.77   0.000   0.200   0.000    0.00
   0.600   10.89   21.49    0.41   0.000   0.200   0.000    0.00
   0.650   11.94   21.88   -0.14   0.000   0.200   0.000    0.00
   0.700   11.57   22.96    0.05   0.000   0.200   0.000    0.00
   0.750   11.70   17.43    0.24   0.000   0.200   0.000    0.00
   0.800   11.36   17.27    0.25   0.000   0.200   0.000    0.00
   0.850   11.32   19.63    0.07   0.000   0.200   0.000    0.00
   0.900   10.95   18.06    0.54   0.000   0.200   0.000    0.00
   0.950   11.03   16.58    0.54   0.000   0.200   0.000    0.00
   1.000   10.96   15.94    0.02   0.000   0.200   0.000    0.00
   1.050   10.71   14.93    0.30   0.000   0.200   0.000    0.00
   1.100   11.52   18.11    0.33   0.000   0.200   0.000    0.00
   1.150   11.48   20.74   -0.17   0.000   0.200   0.000    0.00
   1.200   11.45   16.33    0.26   0.000   0.200   0.000    0.00
   1.250   11.19   16.41    0.29   0.000   0.200   0.000    0.00
   1.300   11.46   17.25   -0.24   0.000   0.200   0.000    0.00
   1.350   12.10   19.93   -0.35   0.000   0.200   0.000    0.00
   1.400   12.01   16.91    0.27   0.000   0.200   0.000    0.00
   1.450   12.14   12.31    0.06   0.000   0.200   0.000    0.00
   1.500   11.83   16.27   -0.46   0.000   0.200   0.000    0.00
   1.550   12.09   14.14   -0.70   0.000   0.200   0.000    0.00
   1.600   12.15   13.53   -1.04   0.000   0.200   0.000    0.00
   1.650   12.33   12.11   -1.02   0.000   0.200   0.000    0.00
   1.700   12.04   13.03   -1.25   0.000   0.200   0.000    0.00
   1.750   11.74   11.99   -1.26   0.000   0.200   0.000    0.00
   1.800   11.70   11.77   -1.48   0.000   0.200   0.000    0.00
   1.850   11.93   13.62   -1.01   0.000   0.200   0.000    0.00
   1.900   11.60   17.69   -1.28   0.000   0.200   0.000    0.00
   1.950   11.42   18.41   -1.70   0.000   0.200   0.000    0.00
   2.000   12.20   21.15   -0.95   0.000   0.200   0.000    0.00
   2.050   11.95   21.05   -0.46   0.000   0.200   0.000    0.00
   2.100   11.99   20.82   -0.45   0.000   0.200   0.000    0.00
   2.150   11.99   22.90   -0.88   0.000   0.200   0.000    0.00
   2.200   11.51   19.46   -0.44   0.000   0.200   0.000    0.00
   2.250   12.08   16.08    0.02   0.000   0.200   0.000    0.00
   2.300   11.97   19.67    0.19   0.000   0.200   0.000    0.00
   2.350   12.74   22.50   -0.04   0.000   0.200   0.000    0.00
   2.400   12.82   24.69    0.45   0.000   0.200   0.000    0.00
   2.450   12.98   24.45    0.17   0.000   0.200   0.000    0.00
   2.500   12.74   22.46   -0.44   0.000   0.200   0.000    0.00
   2.550   12.84   19.95   -0.61   0.000   0.200   0.000    0.00
   2.600   12.51   24.37   -0.96   0.000   0.200   0.000    0.00
   2.650   12.55   30.70   -1.50   0.000   0.200   0.000    0.00
   2.700   12.19   27.09   -0.90   0.000   0.200   0.000    0.00
   2.750   12.33   29.61   -0.86   0.000   0.200   0.000    0.00
   2.800   11.39   25.41   -1.69   0.000   0.200   0.000    0.00
   2.850   11.08   26.73   -2.03   0.000   0.200   0.000    0.00
   2.900   10.78   25.56   -2.64   0.000   0.200   0.000    0.00
   2.950   11.24   22.75   -2.21   0.000   0.200   0.000    0.00
   3.000   11.03   22.76   -1.74   0.000   0.200   0.000    0.00
   3.050   11.29   25.32   -2.49   0.000   0.200   0.000    0.00
   3.100   10.73   24.44   -2.28   0.000   0.200   0.000    0.00
   3.150   10.09   23.26   -2.37   0.000   0.200   0.000    0.00
   3.200   10.64   22.17   -2.13   0.000   0.200   0.000    0.00
   3.250   11.32   21.18   -1.58   0.000   0.200   0.000    0.00
   3.300   10.82   22.39   -1.39   0.000   0.200   0.000    0.00
   3.350   10.96   23.45   -1.12   0.000   0.200   0.000    0.00
   3.400   10.80   25.85   -1.46   0.000   0.200   0.000    0.00
   3.450   11.06   24.84   -0.94   0.000   0.200   0.000    0.00
   3.500   10.81   22.93   -1.02   0.000   0.200   0.000    0.00
   3.550   10.99   22.45   -1.00   0.000   0.200   0.000    0.00
   3.600   11.96   21.77   -0.96   0.000   0.200   0.000    0.00
   3.650   11.96   22.36   -0.84   0.000   0.200   0.000    0.00
   3.700   12.05   23.87   -0.97   0.000   0.200   0.000    0.00
   3.750   13.00   25.27   -0.64   0.000   0.200   0.000    0.00
   3.800   12.48   26.68   -0.74   0.000   0.200   0.000    0.00
   3.850   13.31   26.36   -0.47   0.000   0.200   0.000    0.00
   3.900   13.52   26.85   -0.32   0.000   0.200   0.000    0.00
   3.950   13.83   29.11   -0.38   0.000   0.200   0.000    0.00
   4.000   12.92   29.71   -0.48   0.000   0.200   0.000    0.00
   4.050   12.57   25.82   -0.58   0.000   0.200   0.000    0.00
   4.100   12.01   28.62   -0.02   0.000   0.200   0.000    0.00
   4.150   12.03   29.72   -0.32   0.000   0.200   0.000    0.00
   4.200   12.14   31.06    0.16   0.000   0.200   0.000    0.00
   4.250   13.09   31.09    0.02   0.000   0.200   0.000    0.00
   4.300   12.62   29.54   -0.31   0.000   0.200   0.000    0.00
   4.350   12.26   32.12    0.22   0.000   0.200   0.000    0.00
   4.400   12.16   29.95    0.55   0.000   0.200   0.000    0.00
   4.450   12.09   30.76    0.12   0.000   0.200   0.000    0.00
   4.500   13.17   31.41    0.61   0.000   0.200   0.000    0.00
   4.550   12.79   30.53    0.12   0.000   0.200   0.000    0.00
   4.600   13.04   31.97   -0.17   0.000   0.200   0.000    0.00
   4.650   13.04   32.32   -0.06   0.000   0.200   0.000    0.00
   4.700   12.72   34.34   -0.63   0.000   0.200   0.000    0.00
   4.750   12.93   35.30   -0.43   0.000   0.200   0.000    0.00
   4.800   12.38   33.48   -0.35   0.000   0.200   0.000    0.00
   4.850   12.32   32.21   -0.69   0.000   0.200   0.000    0.00
   4.900   12.32   33.79   -0.45   0.000   0.200   0.000    0.00
   4.950   13.36   34.55   -0.25   0.000   0.200   0.000    0.00
   5.000   13.46   35.62   -0.27   0.000   0.200   0.000    0.00
   5.050   12.21   34.78   -0.28   0.000   0.200   0.000    0.00
   5.100   12.87   33.46   -0.38   0.000   0.200   0.000    0.00
   5.150   12.80   30.81   -0.90   0.000   0.200   0.000    0.00
   5.200   13.33   26.87   -0.97   0.000   0.200   0.000    0.00
   5.250   13.44   26.86   -1.42   0.000   0.200   0.000    0.00
   5.300   13.61   28.19   -1.33   0.000   0.200   0.000    0.00
   5.350   12.63   27.83   -0.80   0.000   0.200   0.000    0.00
   5.400   12.54   31.12    0.41   0.000   0.200   0.000    0.00
   5.450   12.46   31.27   -0.19   0.000   0.200   0.000    0.00
   5.500   12.41   34.01   -0.08   0.000   0.200   0.000    0.00
   5.550   12.37   33.79   -0.29   0.000   0.200   0.000    0.00
   5.600   12.60   30.05   -0.61   0.000   0.200   0.000    0.00
   5.650   11.92   29.72   -0.78   0.000   0.200   0.000    0.00
   5.700   11.72   32.35   -1.00   0.000   0.200   0.000    0.00
   5.750   11.67   31.78   -1.00   0.000   0.200   0.000    0.00
   5.800   11.61   31.16   -0.68   0.000   0.200   0.000    0.00
   5.850   11.81   31.48   -0.42   0.000   0.200   0.000    0.00
   5.900   11.43   28.37   -0.46   0.000   0.200   0.000    0.00
   5.950   11.66   29.95   -0.08   0.000   0.200   0.000    0.00
   6.000   11.68   27.44   -0.50   0.000   0.200   0.000    0.00
   6.050   11.99   28.43   -0.87   0.000   0.200   0.000    0.00
   6.100   11.60   30.19   -0.26   0.000   0.200   0.000    0.00
   6.150   11.76   33.23   -0.02   0.000   0.200   0.000    0.00
   6.200   12.06   35.19   -0.61   0.000   0.200   0.000    0.00
   6.250   11.75   36.08   -1.29   0.000   0.200   0.000    0.00
   6.300   11.63   34.26   -1.07   0.000   0.200   0.000    0.00
   6.350   10.50   30.32   -0.68   0.000   0.200   0.000    0.00
   6.400   10.03   28.50   -0.91   0.000   0.200   0.000    0.00
   6.450    9.81   30.75   -1.15   0.000   0.200   0.000    0.00
   6.500    9.73   28.63   -0.98   0.000   0.200   0.000    0.00
   6.550    9.33   32.28   -0.82   0.000   0.200   0.000    0.00
   6.600   10.09   35.56   -0.68   0.000   0.200   0.000    0.00
   6.650   10.46   38.77   -0.59   0.000   0.200   0.000    0.00
   6.700   10.27   33.56   -1.50   0.000   0.200   0.000    0.00
   6.750    8.94   28.77   -1.51   0.000   0.200   0.000    0.00
   6.800    8.46   33.47   -0.99   0.000   0.200   0.000    0.00
   6.850    9.33   36.09   -0.83   0.000   0.200   0.000    0.00
   6.900    9.41   34.13   -0.95   0.000   0.200   0.000    0.00
   6.950    9.93   32.24   -0.76   0.000   0.200   0.000    0.00
   7.000    9.87   38.92   -1.50   0.000   0.200   0.000    0.00
   7.050    9.83   35.43   -1.41   0.000   0.200   0.000    0.00
   7.100   10.40   34.07   -1.14   0.000   0.200   0.000    0.00
   7.150   10.38   28.69   -0.98   0.000   0.200   0.000    0.00
   7.200   10.13   28.71   -0.85   0.000   0.200   0.000    0.00
   7.250   10.15   31.12   -1.23   0.000   0.200   0.000    0.00
   7.300   10.33   28.40   -0.24   0.000   0.200   0.000    0.00
   7.350   11.29   26.72   -0.13   0.000   0.200   0.000    0.00
   7.400   11.86   28.18   -0.23   0.000   0.200   0.000    0.00
   7.450   11.13   27.28   -0.82   0.000   0.200   0.000    0.00
   7.500   10.89   28.20   -0.65   0.000   0.200   0.000    0.00
   7.550   10.72   28.54   -0.60   0.000   0.200   0.000    0.00
   7.600   10.18   30.03   -0.46   0.000   0.200   0.000    0.00
   7.650   10.42   30.29    0.62   0.000   0.200   0.000    0.00
   7.700   10.71   31.91    0.42   0.000   0.200   0.000    0.00
   7.750   10.77   35.16    0.93   0.000   0.200   0.000    0.00
   7.800   10.58   31.41    1.70   0.000   0.200   0.000    0.00
   7.850   10.87   30.15    1.00   0.000   0.200   0.000    0.00
   7.900   11.52   31.52    1.13   0.000   0.200   0.000    0.00
   7.950   11.63   29.20    1.78   0.000   0.200   0.000    0.00
   8.000   11.14   29.71    1.51   0.000   0.200   0.000    0.00
   8.050   11.36   28.12    0.50   0.000   0.200   0.000    0.00
   8.100   11.94   27.70    0.10   0.000   0.200   0.000    0.00
   8.150   11.23   30.69    0.19   0.000   0.200   0.000    0.00
   8.200   11.20   30.79    1.19   0.000   0.200   0.000    0.00
   8.250   11.88   30.62    1.55   0.000   0.200   0.000    0.00
   8.300   12.16   32.40    2.04   0.000   0.200   0.000    0.00
   8.350   12.45   34.98    1.69   0.000   0.200   0.000    0.00
   8.400   12.17   35.50    0.50   0.000   0.200   0.000    0.00
   8.450   12.01   35.59    0.36   0.000   0.200   0.000    0.00
   8.500   12.08   35.53   -0.29   0.000   0.200   0.000    0.00
   8.550   12.74   34.82   -0.31   0.000   0.200   0.000    0.00
   8.600   12.36   33.16   -0.21   0.000   0.200   0.000    0.00
   8.650   12.60   33.72   -0.34   0.000   0.200   0.000    0.00
   8.700   12.58   32.21    0.69   0.000   0.200   0.000    0.00
   8.750   12.73   30.60    0.36   0.000   0.200   0.000    0.00
   8.800   11.95   27.82    1.22   0.000   0.200   0.000    0.00
   8.850   11.60   28.03    0.99   0.000   0.200   0.000    0.00
   8.900   11.06   27.98    0.28   0.000   0.200   0.000    0.00
   8.950   11.09   31.58   -0.13   0.000   0.200   0.000    0.00
   9.000   10.55   31.25    0.46   0.000   0.200   0.000    0.00
   9.050    9.74   30.68    0.39   0.000   0.200   0.000    0.00
   9.100   10.54   29.13   -0.34   0.000   0.200   0.000    0.00
   9.150   10.70   25.15   -0.48   0.000   0.200   0.000    0.00
   9.200   10.25   27.52   -0.06   0.000   0.200   0.000    0.00
   9.250   10.06   30.85    1.38   0.000   0.200   0.000    0.00
   9.300   10.34   32.65    1.07   0.000   0.200   0.000    0.00
   9.350    9.21   35.27    1.05   0.000   0.200   0.000    0.00
   9.400    9.43   39.07    0.70   0.000   0.200   0.000    0.00
   9.450    9.00   36.75    0.89   0.000   0.200   0.000    0.00
   9.500    9.43   36.54    1.29   0.000   0.200   0.000    0.00
   9.550    9.41   36.24    0.42   0.000   0.200   0.000    0.00
   9.600    9.16   36.67    0.39   0.000   0.200   0.000    0.00
   9.650    9.51   36.13    0.66   0.000   0.200   0.000    0.00
   9.700    9.28   34.73   -0.09   0.000   0.200   0.000    0.00
   9.750    9.76   36.23   -0.28   0.000   0.200   0.000    0.00
   9.800   10.20   37.66    0.18   0.000   0.200   0.000    0.00
   9.850   10.42   34.11    0.05   0.000   0.200   0.000    0.00
   9.900    9.91   31.51    0.16   0.000   0.200   0.000    0.00
   9.950   10.36   30.00    0.44   0.000   0.200   0.000    0.00
  10.000   10.87   28.44    0.52   0.000   0.200   0.000    0.00
  10.050   10.11   33.51    0.71   0.000   0.200   0.000    0.00
  10.100    9.81   29.83    0.47   0.000   0.200   0.000    0.00
  10.150   10.32   31.94    0.53   0.000   0.200   0.000    0.00
  10.200    9.50   27.94    0.67   0.000   0.200   0.000    0.00
  10.250    9.15   28.64    1.21   0.000   0.200   0.000    0.00
  10.300    9.08   29.36    0.76   0.000   0.200   0.000    0.00
  10.350    8.78   30.19    0.87   0.000   0.200   0.000    0.00
  10.400    8.74   28.63    0.92   0.000   0.200   0.000    0.00
  10.450    9.00   29.28    0.47   0.000   0.200   0.000    0.00
  10.500    8.63   23.31    0.40   0.000   0.200   0.000    0.00
  10.550    8.83   21.58    0.23   0.000   0.200   0.000    0.00
  10.600    8.71   19.54   -0.15   0.000   0.200   0.000    0.00
  10.650    8.72   18.41    0.54   0.000   0.200   0.000    0.00
  10.700    8.87    9.17    0.84   0.000   0.200   0.000    0.00
  10.750    8.57   11.45    1.02   0.000   0.200   0.000    0.00
  10.800    8.60   12.61    0.69   0.000   0.200   0.000    0.00
  10.850    8.08   10.45    0.92   0.000   0.200   0.000    0.00
  10.900    8.03   12.32    1.24   0.000   0.200   0.000    0.00
  10.950    8.24   14.76    1.11   0.000   0.200   0.000    0.00
  11.000    8.37   15.98    0.55   0.000   0.200   0.000    0.00
  11.050    7.82   14.77    1.19   0.000   0.200   0.000    0.00
  11.100    7.65   12.55    1.71   0.000   0.200   0.000    0.00
  11.150    7.44   13.73    1.46   0.000   0.200   0.000    0.00
  11.200    7.94   11.51    1.55   0.000   0.200   0.000    0.00
  11.250    7.52   10.67    1.86   0.000   0.200   0.000    0.00
  11.300    7.25   13.76    1.82   0.000   0.200   0.000    0.00
  11.350    7.33   19.43    1.42   0.000   0.200   0.000    0.00
  11.400    7.52   21.93    1.25   0.000   0.200   0.000    0.00
  11.450    8.27   21.00    1.12   0.000   0.200   0.000    0.00
  11.500    8.88   21.90    0.41   0.000   0.200   0.000    0.00
  11.550    8.92   22.16    0.93   0.000   0.200   0.000    0.00
  11.600    9.00   23.51    1.98   0.000   0.200   0.000    0.00
  11.650    8.91   27.23    1.68   0.000   0.200   0.000    0.00
  11.700    8.70   28.58    1.27   0.000   0.200   0.000    0.00
  11.750    8.85   24.14    1.83   0.000   0.200   0.000    0.00
  11.800    9.09   23.45    1.64   0.000   0.200   0.000    0.00
  11.850    9.55   22.76    1.97   0.000   0.200   0.000    0.00
  11.900    9.71   23.44    1.87   0.000   0.200   0.000    0.00
  11.950    9.43   25.82    1.75   0.000   0.200   0.000    0.00
  12.000    8.67   21.56    1.94   0.000   0.200   0.000    0.00
  12.050    8.25   21.04    1.12   0.000   0.200   0.000    0.00
  12.100    7.78   24.57    1.00   0.000   0.200   0.000    0.00
  12.150    7.16   25.18    0.02   0.000   0.200   0.000    0.00
  12.200    7.02   20.77   -0.18   0.000   0.200   0.000    0.00
  12.250    7.51   22.20    0.59   0.000   0.200   0.000    0.00
  12.300    7.55   23.05    0.61   0.000   0.200   0.000    0.00
  12.350    7.64   25.24    0.26   0.000   0.200   0.000    0.00
  12.400    7.87   28.22    0.39   0.000   0.200   0.000    0.00
  12.450    6.88   27.61    0.32   0.000   0.200   0.000    0.00
  12.500    6.69   27.20   -0.12   0.000   0.200   0.000    0.00
  12.550    6.28   27.24    0.41   0.000   0.200   0.000    0.00
  12.600    6.34   23.36    1.03   0.000   0.200   0.000    0.00
  12.650    5.63   21.82    1.07   0.000   0.200   0.000    0.00
  12.700    6.13   17.16    0.76   0.000   0.200   0.000    0.00
  12.750    6.10   13.62    0.62   0.000   0.200   0.000    0.00
  12.800    7.00   18.20    0.04   0.000   0.200   0.000    0.00
  12.850    6.95   14.78   -0.03   0.000   0.200   0.000    0.00
  12.900    7.13   16.15    0.33   0.000   0.200   0.000    0.00
  12.950    6.49   14.79    0.62   0.000   0.200   0.000    0.00
  13.000    6.97   14.38    0.77   0.000   0.200   0.000    0.00
  13.050    6.17   14.54    1.47   0.000   0.200   0.000    0.00
  13.100    6.15   14.90    0.90   0.000   0.200   0.000    0.00
  13.150    5.72   10.91    0.82   0.000   0.200   0.000    0.00
  13.200    6.01   13.97    1.30   0.000   0.200   0.000    0.00
  13.250    6.90   14.68    1.04   0.000   0.200   0.000    0.00
  13.300    6.93   16.41    0.33   0.000   0.200   0.000    0.00
  13.350    6.26   13.36   -0.01   0.000   0.200   0.000    0.00
  13.400    6.34   12.67   -0.08   0.000   0.200   0.000    0.00
  13.450    5.97    8.97   -0.13   0.000   0.200   0.000    0.00
  13.500    6.26   11.31    0.13   0.000   0.200   0.000    0.00
  13.550    5.71   12.58    0.35   0.000   0.200   0.000    0.00
  13.600    6.09    8.00    0.25   0.000   0.200   0.000    0.00
  13.650    7.24   10.09    1.02   0.000   0.200   0.000    0.00
  13.700    6.67   12.77    0.94   0.000   0.200   0.000    0.00
  13.750    6.62   13.86    1.07   0.000   0.200   0.000    0.00
  13.800    6.46    9.86    1.52   0.000   0.200   0.000    0.00
  13.850    6.71   11.66    1.20   0.000   0.200   0.000    0.00
  13.900    6.89   12.25    1.05   0.000   0.200   0.000    0.00
  13.950    7.24   13.17    1.30   0.000   0.200   0.000    0.00
  14.000    7.92   12.97    1.17   0.000   0.200   0.000    0.00
  14.050    8.26    7.73   -0.16   0.000   0.200   0.000    0.00
  14.100    8.31    6.84   -0.17   0.000   0.200   0.000    0.00
  14.150    8.65    4.23    0.80   0.000   0.200   0.000    0.00
  14.200    8.52    2.41    0.86   0.000   0.200   0.000    0.00
  14.250    7.98    1.57    0.97   0.000   0.200   0.000    0.00
  14.300    8.60   -2.95    0.73   0.000   0.200   0.000    0.00
  14.350    8.61   -6.02    0.59   0.000   0.200   0.000    0.00
  14.400    8.61   -6.42    1.24   0.000   0.200   0.000    0.00
  14.450    8.51   -9.38    0.30   0.000   0.200   0.000    0.00
  14.500    7.60  -11.17    0.40   0.000   0.200   0.000    0.00
  14.550    7.46  -14.82   -0.11   0.000   0.200   0.000    0.00
  14.600    7.10  -13.27   -0.38   0.000   0.200   0.000    0.00
  14.650    6.84   -7.84   -0.71   0.000   0.200   0.000    0.00
  14.700    6.64   -2.78    0.02   0.000   0.200   0.000    0.00
  14.750    6.89   -6.52    0.32   0.000   0.200   0.000    0.00
  14.800    6.08  -17.62    0.47   0.000   0.200   0.000    0.00
  14.850    6.18  -14.62    0.86   0.000   0.200   0.000    0.00
  14.900    6.53  -15.85    0.77   0.000   0.200   0.000    0.00
  14.950    6.92  -12.51    0.17   0.000   0.200   0.000    0.00
  15.000    7.07  -19.13   -0.56   0.000   0.200   0.000    0.00
  15.050    7.40  -15.62   -0.19   0.000   0.200   0.000    0.00
  15.100    7.60  -13.13    0.59   0.000   0.200   0.000    0.00
  15.150    8.36  -14.32    0.66   0.000   0.200   0.000    0.00
  15.200    7.89  -13.57    0.17   0.000   0.200   0.000    0.00
  15.250    6.38  -16.52    0.23   0.000   0.200   0.000    0.00
  15.300    6.57  -16.08    0.62   0.000   0.200   0.000    0.00
  15.350    6.79  -12.46    0.26   0.000   0.200   0.000    0.00
  15.400    7.38  -11.48    1.23   0.000   0.200   0.000    0.00
  15.450    6.93  -11.01    0.99   0.000   0.200   0.000    0.00
  15.500    7.50   -9.37    1.31   0.000   0.200   0.000    0.00
  15.550    7.53   -5.98    1.67   0.000   0.200   0.000    0.00
  15.600    8.37   -5.67    1.25   0.000   0.200   0.000    0.00
  15.650    8.74   -7.82    1.33   0.000   0.200   0.000    0.00
  15.700    8.61   -5.24    1.70   0.000   0.200   0.000    0.00
  15.750    8.50   -8.75    1.43   0.000   0.200   0.000    0.00
  15.800    8.86  -13.67    1.65   0.000   0.200   0.000    0.00
  15.850    8.78  -10.25    0.99   0.000   0.200   0.000    0.00
  15.900    9.06  -13.25    0.52   0.000   0.200   0.000    0.00
  15.950    9.35  -13.71    1.05   0.000   0.200   0.000    0.00
  16.000    9.75  -11.67    2.10   0.000   0.200   0.000    0.00
  16.050   10.09  -12.66    1.58   0.000   0.200   0.000    0.00
  16.100    9.50  -13.38    1.21   0.000   0.200   0.000    0.00
  16.150    9.71   -9.87    1.96   0.000   0.200   0.000    0.00
  16.200    9.46   -5.35    2.23   0.000   0.200   0.000    0.00
  16.250    9.17   -6.29    2.82   0.000   0.200   0.000    0.00
  16.300    8.76   -6.87    2.57   0.000   0.200   0.000    0.00
  16.350    9.38   -6.87    3.36   0.000   0.200   0.000    0.00
  16.400    9.34   -9.41    3.09   0.000   0.200   0.000    0.00
  16.450   10.14   -7.49    2.39   0.000   0.200   0.000    0.00
  16.500   11.04   -8.66    2.17   0.000   0.200   0.000    0.00
  16.550   10.02   -7.86    1.98   0.000   0.200   0.000    0.00
  16.600    9.90   -8.67    1.82   0.000   0.200   0.000    0.00
  16.650    9.73   -5.74    1.65   0.000   0.200   0.000    0.00
  16.700    9.64   -3.02    1.29   0.000   0.200   0.000    0.00
  16.750    9.33   -3.03    1.63   0.000   0.200   0.000    0.00
  16.800    9.01   -5.80    2.29   0.000   0.200   0.000    0.00
  16.850    9.24   -5.72    2.06   0.000   0.200   0.000    0.00
  16.900    9.35   -6.50    1.21   0.000   0.200   0.000    0.00
  16.950    9.26   -3.99    0.69   0.000   0.200   0.000    0.00
  17.000    9.61    3.01    0.87   0.000   0.200   0.000    0.00
  17.050    9.38    0.83    1.08   0.000   0.200   0.000    0.00
  17.100    9.38    0.15    1.29   0.000   0.200   0.000    0.00
  17.150    9.31   -0.01    0.75   0.000   0.200   0.000    0.00
  17.200    9.11    2.43    0.09   0.000   0.200   0.000    0.00
  17.250    8.98    2.99   -0.68   0.000   0.200   0.000    0.00
  17.300    9.19    0.86   -0.21   0.000   0.200   0.000    0.00
  17.350    8.73    1.46   -0.86   0.000   0.200   0.000    0.00
  17.400    8.59    8.79   -0.96   0.000   0.200   0.000    0.00
  17.450    9.31    9.84    0.27   0.000   0.200   0.000    0.00
  17.500    9.79   12.51    0.36   0.000   0.200   0.000    0.00
  17.550    9.96   12.09    0.09   0.000   0.200   0.000    0.00
  17.600    9.63   10.52   -0.15   0.000   0.200   0.000    0.00
  17.650    9.22    8.86    0.16   0.000   0.200   0.000    0.00
  17.700    9.65    8.23    0.22   0.000   0.200   0.000    0.00
  17.750    9.41   11.34    0.49   0.000   0.200   0.000    0.00
  17.800    9.23   12.45    0.92   0.000   0.200   0.000    0.00
  17.850    9.15    9.42    1.36   0.000   0.200   0.000    0.00
  17.900    9.40   10.08    1.77   0.000   0.200   0.000    0.00
  17.950    9.45   13.57    1.02   0.000   0.200   0.000    0.00
  18.000    9.67   10.41    1.16   0.000   0.200   0.000    0.00
  18.050   10.41    9.99    1.11   0.000   0.200   0.000    0.00
  18.100   10.64    8.37    1.03   0.000   0.200   0.000    0.00
  18.150   10.67   11.23    1.42   0.000   0.200   0.000    0.00
  18.200   10.80   14.26    2.09   0.000   0.200   0.000    0.00
  18.250   10.64   13.18    2.08   0.000   0.200   0.000    0.00
  18.300   10.33   11.90    1.55   0.000   0.200   0.000    0.00
  18.350   10.29    7.76    0.96   0.000   0.200   0.000    0.00
  18.400   10.20    5.89    1.29   0.000   0.200   0.000    0.00
  18.450   10.04    4.17    1.12   0.000   0.200   0.000    0.00
  18.500   10.08    7.06    0.30   0.000   0.200   0.000    0.00
  18.550    9.92    8.51    0.19   0.000   0.200   0.000    0.00
  18.600   10.42   10.41    0.36   0.000   0.200   0.000    0.00
  18.650   10.68    9.93    0.03   0.000   0.200   0.000    0.00
  18.700   10.36    9.72   -0.57   0.000   0.200   0.000    0.00
  18.750   10.08    9.52   -1.25   0.000   0.200   0.000    0.00
  18.800    9.79   10.37   -1.70   0.000   0.200   0.000    0.00
  18.850   10.19   10.15   -0.87   0.000   0.200   0.000    0.00
  18.900   10.74    6.91   -1.22   0.000   0.200   0.000    0.00
  18.950   10.83    6.72   -1.46   0.000   0.200   0.000    0.00
  19.000   10.73    9.27   -1.45   0.000   0.200   0.000    0.00
  19.050   10.91    7.21   -1.79   0.000   0.200   0.000    0.00
  19.100   11.11    7.26   -1.45   0.000   0.200   0.000    0.00
  19.150   11.08    9.89   -1.45   0.000   0.200   0.000    0.00
  19.200   11.44   11.33   -1.16   0.000   0.200   0.000    0.00
  19.250   11.54    9.36   -0.70   0.000   0.200   0.000    0.00
  19.300   11.39   10.82   -0.56   0.000   0.200   0.000    0.00
  19.350   11.15   12.29   -0.34   0.000   0.200   0.000    0.00
  19.400   11.55   10.81   -0.79   0.000   0.200   0.000    0.00
  19.450   12.01   11.48   -0.75   0.000   0.200   0.000    0.00
  19.500   11.64    9.11   -0.53   0.000   0.200   0.000    0.00
  19.550   12.09    5.96   -0.33   0.000   0.200   0.000    0.00
  19.600   11.81    2.76   -0.39   0.000   0.200   0.000    0.00
  19.650   11.83    0.88   -1.16   0.000   0.200   0.000    0.00
  19.700   11.61    3.86   -1.32   0.000   0.200   0.000    0.00
  19.750   11.00    5.03   -1.10   0.000   0.200   0.000    0.00
  19.800   11.15   10.02   -0.41   0.000   0.200   0.000    0.00
  19.850   11.03    8.41   -1.27   0.000   0.200   0.000    0.00
  19.900   11.29    8.56   -1.86   0.000   0.200   0.000    0.00
  19.950   11.29    8.01   -1.23   0.000   0.200   0.000    0.00
  20.000   11.05    8.34   -0.85   0.000   0.200   0.000    0.00
  20.050   10.72   11.86   -0.34   0.000   0.200   0.000    0.00
  20.100   11.89   11.51    0.28   0.000   0.200   0.000    0.00
  20.150   12.13   11.67   -1.09   0.000   0.200   0.000    0.00
  20.200   12.20   13.67   -0.97   0.000   0.200   0.000    0.00
  20.250   12.26   11.91   -1.00   0.000   0.200   0.000    0.00
  20.300   12.45   12.91   -1.63   0.000   0.200   0.000    0.00
  20.350   13.04   16.15   -1.68   0.000   0.200   0.000    0.00
  20.400   12.23   13.43   -2.04   0.000   0.200   0.000    0.00
  20.450   12.29   14.25   -1.72   0.000   0.200   0.000    0.00
  20.500   11.92   13.71   -2.03   0.000   0.200   0.000    0.00
  20.550   11.33   11.30   -1.82   0.000   0.200   0.000    0.00
  20.600   11.38   11.87   -2.08   0.000   0.200   0.000    0.00
  20.650   11.60   16.12   -2.35   0.000   0.200   0.000    0.00
  20.700   11.86   17.30   -2.64   0.000   0.200   0.000    0.00
  20.750   11.97   11.64   -3.06   0.000   0.200   0.000    0.00
  20.800   11.66   11.52   -2.55   0.000   0.200   0.000    0.00
  20.850   11.63   13.03   -2.76   0.000   0.200   0.000    0.00
  20.900   12.52   13.27   -2.81   0.000   0.200   0.000    0.00
  20.950   12.09   15.80   -3.00   0.000   0.200   0.000    0.00
  21.000   11.96   18.31   -2.63   0.000   0.200   0.000    0.00
  21.050   11.07   16.74   -2.79   0.000   0.200   0.000    0.00
  21.100   11.07   20.22   -2.74   0.000   0.200   0.000    0.00
  21.150   11.61   22.54   -2.52   0.000   0.200   0.000    0.00
  21.200   11.58   22.31   -2.67   0.000   0.200   0.000    0.00
  21.250   11.41   22.01   -1.24   0.000   0.200   0.000    0.00
  21.300   11.57   21.67   -1.37   0.000   0.200   0.000    0.00
  21.350   11.54   17.67   -1.13   0.000   0.200   0.000    0.00
  21.400   12.25   19.61   -1.90   0.000   0.200   0.000    0.00
  21.450   12.00   15.20   -1.91   0.000   0.200   0.000    0.00
  21.500   11.50   11.57   -1.73   0.000   0.200   0.000    0.00
  21.550   11.54   12.81   -1.66   0.000   0.200   0.000    0.00
  21.600   12.13   10.98   -1.21   0.000   0.200   0.000    0.00
  21.650   12.13    8.41   -1.24   0.000   0.200   0.000    0.00
  21.700   11.81    9.71   -1.98   0.000   0.200   0.000    0.00
  21.750   12.10   14.13   -2.33   0.000   0.200   0.000    0.00
  21.800   12.58   12.00   -1.92   0.000   0.200   0.000    0.00
  21.850   12.32   14.28   -1.87   0.000   0.200   0.000    0.00
  21.900   12.99    7.63   -0.86   0.000   0.200   0.000    0.00
  21.950   12.52    8.37   -1.17   0.000   0.200   0.000    0.00
  22.000   12.51   12.04   -0.89   0.000   0.200   0.000    0.00
  22.050   12.32   14.38   -1.20   0.000   0.200   0.000    0.00
  22.100   12.50   12.27   -1.22   0.000   0.200   0.000    0.00
  22.150   12.43   13.56   -1.94   0.000   0.200   0.000    0.00
  22.200   12.47   20.19   -1.57   0.000   0.200   0.000    0.00
  22.250   12.17   17.31   -1.56   0.000   0.200   0.000    0.00
  22.300   12.06   15.92   -1.77   0.000   0.200   0.000    0.00
  22.350   11.99   15.39   -0.86   0.000   0.200   0.000    0.00