! This hub-height wind-speed file was generated by TurbSim (v1.06.00, 21-Sep-2012) on 03-Feb-2018 at 23:32:08.
!
! The requested statistics for this data were:
!    Mean Total Wind Speed =   23.000 m/s
!    Turbulence Intensity  =   13.909%
!
!   Time  HorSpd  WndDir  VerSpd  HorShr  VerShr  LnVShr  GstSpd
!  (sec)   (m/s)   (deg)   (m/s)     (-)     (-)     (-)   (m/s)
   0.000   25.86   16.85   -0.49   0.000   0.200   0.000    0.00
   0.050   26.81   17.49   -0.78   0.000   0.200   0.000    0.00
   0.100   26.04   12.85   -0.80   0.000   0.200   0.000    0.00
   0.150   26.40   13.41   -0.39   0.000   0.200   0.000    0.00
   0.200   27.59   14.80    0.23   0.000   0.200   0.000    0.00
   0.250   27.93   11.50   -0.15   0.000   0.200   0.000    0.00
   0.300   27.72   10.90   -0.22   0.000   0.200   0.000    0.00
   0.350   28.34    8.56    0.28   0.000   0.200   0.000    0.00
   0.400   29.90    9.71    0.54   0.000   0.200   0.000    0.00
   0.450   29.70    8.19    0.82   0.000   0.200   0.000    0.00
   0.500   29.32    6.14    1.70   0.000   0.200   0.000    0.00
   0.550   28.54    9.23    2.05   0.000   0.200   0.000    0.00
   0.600   28.45    9.22    1.84   0.000   0.200   0.000    0.00
   0.650   28.19    9.05    0.40   0.000   0.200   0.000    0.00
   0.700   28.93   11.24   -0.76   0.000   0.200   0.000    0.00
   0.750   29.95   13.14   -0.43   0.000   0.200   0.000    0.00
   0.800   30.31   12.14   -1.98   0.000   0.200   0.000    0.00
   0.850   29.35   13.04   -2.57   0.000   0.200   0.000    0.00
   0.900   27.63   10.19   -3.38   0.000   0.200   0.000    0.00
   0.950   26.39   10.65   -2.27   0.000   0.200   0.000    0.00
   1.000   27.55    9.78   -1.14   0.000   0.200   0.000    0.00
   1.050   27.19    9.43   -2.03   0.000   0.200   0.000    0.00
   1.100   26.66   10.57   -2.12   0.000   0.200   0.000    0.00
   1.150   26.91    8.85   -2.65   0.000   0.200   0.000    0.00
   1.200   27.11    8.93   -2.31   0.000   0.200   0.000    0.00
   1.250   27.05    7.99   -3.35   0.000   0.200   0.000    0.00
   1.300   27.27    8.79   -2.72   0.000   0.200   0.000    0.00
   1.350   26.49    8.87   -2.02   0.000   0.200   0.000    0.00
   1.400   26.45    8.78   -1.21   0.000   0.200   0.000    0.00
   1.450   27.33    8.75   -1.75   0.000   0.200   0.000    0.00
   1.500   27.19    7.77   -1.83   0.000   0.200   0.000    0.00
   1.550   27.79   10.21   -1.70   0.000   0.200   0.000    0.00
   1.600   27.53    9.22   -1.63   0.000   0.200   0.000    0.00
   1.650   26.84   10.98   -3.11   0.000   0.200   0.000    0.00
   1.700   26.67   12.50   -2.33   0.000   0.200   0.000    0.00
   1.750   26.30   12.40   -2.27   0.000   0.200   0.000    0.00
   1.800   26.53   11.91   -1.79   0.000   0.200   0.000    0.00
   1.850   26.58    8.99   -2.16   0.000   0.200   0.000    0.00
   1.900   25.84    7.07   -3.08   0.000   0.200   0.000    0.00
   1.950   26.23    7.99   -2.16   0.000   0.200   0.000    0.00
   2.000   25.98    8.04   -1.65   0.000   0.200   0.000    0.00
   2.050   25.51    8.71   -0.62   0.000   0.200   0.000    0.00
   2.100   24.69    7.77    0.20   0.000   0.200   0.000    0.00
   2.150   25.03    9.26    1.04   0.000   0.200   0.000    0.00
   2.200   23.86    7.35    1.68   0.000   0.200   0.000    0.00
   2.250   24.22    7.68    2.77   0.000   0.200   0.000    0.00
   2.300   24.44    7.43    1.39   0.000   0.200   0.000    0.00
   2.350   24.16    8.05    1.78   0.000   0.200   0.000    0.00
   2.400   25.57    7.00    2.15   0.000   0.200   0.000    0.00
   2.450   25.37    8.59    2.46   0.000   0.200   0.000    0.00
   2.500   24.89    7.30    1.99   0.000   0.200   0.000    0.00
   2.550   24.81    7.24    0.95   0.000   0.200   0.000    0.00
   2.600   24.53    5.43    1.56   0.000   0.200   0.000    0.00
   2.650   24.52    4.82    0.55   0.000   0.200   0.000    0.00
   2.700   25.46    5.21   -0.01   0.000   0.200   0.000    0.00
   2.750   24.91    5.41    1.26   0.000   0.200   0.000    0.00
   2.800   23.01    3.31    0.16   0.000   0.200   0.000    0.00
   2.850   23.35    0.22   -0.43   0.000   0.200   0.000    0.00
   2.900   23.34   -0.02   -0.61   0.000   0.200   0.000    0.00
   2.950   24.70   -1.08   -0.05   0.000   0.200   0.000    0.00
   3.000   25.51   -2.26    0.71   0.000   0.200   0.000    0.00
   3.050   25.33   -3.00    0.99   0.000   0.200   0.000    0.00
   3.100   25.50   -3.23    2.40   0.000   0.200   0.000    0.00
   3.150   25.94   -2.56    1.58   0.000   0.200   0.000    0.00
   3.200   25.73   -2.10    1.21   0.000   0.200   0.000    0.00
   3.250   24.44   -5.02    2.42   0.000   0.200   0.000    0.00
   3.300   23.90   -4.88    3.63   0.000   0.200   0.000    0.00
   3.350   23.57   -4.11    2.86   0.000   0.200   0.000    0.00
   3.400   23.41   -3.04    2.09   0.000   0.200   0.000    0.00
   3.450   23.71   -3.71    1.78   0.000   0.200   0.000    0.00
   3.500   22.92   -1.76    0.80   0.000   0.200   0.000    0.00
   3.550   22.80   -4.08    1.63   0.000   0.200   0.000    0.00
   3.600   22.44   -2.90    0.54   0.000   0.200   0.000    0.00
   3.650   23.60   -2.25    1.04   0.000   0.200   0.000    0.00
   3.700   23.32   -3.01    1.61   0.000   0.200   0.000    0.00
   3.750   23.37   -3.92    2.00   0.000   0.200   0.000    0.00
   3.800   25.06   -3.90    1.46   0.000   0.200   0.000    0.00
   3.850   25.58   -1.88    0.62   0.000   0.200   0.000    0.00
   3.900   25.54   -1.36   -0.76   0.000   0.200   0.000    0.00
   3.950   25.21   -2.99   -1.39   0.000   0.200   0.000    0.00
   4.000   24.87   -2.46   -0.49   0.000   0.200   0.000    0.00
   4.050   24.51   -0.61   -0.80   0.000   0.200   0.000    0.00
   4.100   23.93   -3.51   -2.32   0.000   0.200   0.000    0.00
   4.150   23.74   -2.97   -1.91   0.000   0.200   0.000    0.00
   4.200   23.27   -0.88   -2.24   0.000   0.200   0.000    0.00
   4.250   22.64   -0.48   -2.95   0.000   0.200   0.000    0.00
   4.300   22.87   -1.84   -1.55   0.000   0.200   0.000    0.00
   4.350   22.35   -4.46   -0.34   0.000   0.200   0.000    0.00
   4.400   23.46   -6.92   -0.30   0.000   0.200   0.000    0.00
   4.450   23.59   -6.98   -0.03   0.000   0.200   0.000    0.00
   4.500   22.25   -5.60   -0.31   0.000   0.200   0.000    0.00
   4.550   22.24   -2.71    1.04   0.000   0.200   0.000    0.00
   4.600   22.22   -2.27    0.45   0.000   0.200   0.000    0.00
   4.650   22.26   -2.18    0.44   0.000   0.200   0.000    0.00
   4.700   22.96   -3.02    0.13   0.000   0.200   0.000    0.00
   4.750   22.56   -2.34   -0.51   0.000   0.200   0.000    0.00
   4.800   22.17   -1.74    0.23   0.000   0.200   0.000    0.00
   4.850   22.55   -0.73   -0.42   0.000   0.200   0.000    0.00
   4.900   23.11   -0.80   -0.75   0.000   0.200   0.000    0.00
   4.950   23.91    2.13   -0.34   0.000   0.200   0.000    0.00
   5.000   23.18    1.66   -1.13   0.000   0.200   0.000    0.00
   5.050   23.35    5.13   -1.15   0.000   0.200   0.000    0.00
   5.100   23.38    4.60   -2.77   0.000   0.200   0.000    0.00
   5.150   24.10    1.09   -2.76   0.000   0.200   0.000    0.00
   5.200   23.81    0.83   -3.01   0.000   0.200   0.000    0.00
   5.250   24.03    3.53   -2.68   0.000   0.200   0.000    0.00
   5.300   24.28    3.22   -1.86   0.000   0.200   0.000    0.00
   5.350   24.92    1.89   -1.43   0.000   0.200   0.000    0.00
   5.400   24.22    2.22   -0.99   0.000   0.200   0.000    0.00
   5.450   24.25    2.19   -1.52   0.000   0.200   0.000    0.00
   5.500   24.31    1.11   -1.56   0.000   0.200   0.000    0.00
   5.550   23.06    5.04   -2.74   0.000   0.200   0.000    0.00
   5.600   22.30    6.62   -2.86   0.000   0.200   0.000    0.00
   5.650   22.34    6.82   -2.84   0.000   0.200   0.000    0.00
   5.700   22.52    6.98   -1.01   0.000   0.200   0.000    0.00
   5.750   22.15    8.58    0.02   0.000   0.200   0.000    0.00
   5.800   22.31    8.71   -0.77   0.000   0.200   0.000    0.00
   5.850   22.58   10.97   -0.41   0.000   0.200   0.000    0.00
   5.900   23.04   13.48   -0.36   0.000   0.200   0.000    0.00
   5.950   23.16   13.61   -0.28   0.000   0.200   0.000    0.00
   6.000   22.92   15.36    0.45   0.000   0.200   0.000    0.00
   6.050   23.61   17.59   -0.21   0.000   0.200   0.000    0.00
   6.100   23.12   15.70   -0.50   0.000   0.200   0.000    0.00
   6.150   23.23   12.12   -0.17   0.000   0.200   0.000    0.00
   6.200   22.89   10.05   -0.58   0.000   0.200   0.000    0.00
   6.250   22.74    8.69   -0.58   0.000   0.200   0.000    0.00
   6.300   22.23   10.29    0.01   0.000   0.200   0.000    0.00
   6.350   21.91   11.96   -0.43   0.000   0.200   0.000    0.00
   6.400   22.44   12.49   -0.20   0.000   0.200   0.000    0.00
   6.450   22.44   10.19   -0.43   0.000   0.200   0.000    0.00
   6.500   23.43   10.44   -0.74   0.000   0.200   0.000    0.00
   6.550   22.26    8.60   -1.49   0.000   0.200   0.000    0.00
   6.600   23.35    8.77   -0.92   0.000   0.200   0.000    0.00
   6.650   23.46    7.61   -0.97   0.000   0.200   0.000    0.00
   6.700   22.65    6.74   -1.96   0.000   0.200   0.000    0.00
   6.750   22.24    9.49   -0.42   0.000   0.200   0.000    0.00
   6.800   22.09    6.20   -0.45   0.000   0.200   0.000    0.00
   6.850   22.57    7.03   -0.34   0.000   0.200   0.000    0.00
   6.900   23.13    8.28   -0.11   0.000   0.200   0.000    0.00
   6.950   23.05   10.63   -0.29   0.000   0.200   0.000    0.00
   7.000   23.45   12.26   -1.10   0.000   0.200   0.000    0.00
   7.050   23.52   13.29   -0.26   0.000   0.200   0.000    0.00
   7.100   24.03   13.21   -0.11   0.000   0.200   0.000    0.00
   7.150   24.13   12.84    0.67   0.000   0.200   0.000    0.00
   7.200   24.45   12.34    0.92   0.000   0.200   0.000    0.00
   7.250   24.22   11.86    0.50   0.000   0.200   0.000    0.00
   7.300   24.34   12.72   -0.11   0.000   0.200   0.000    0.00
   7.350   24.34   10.17    0.21   0.000   0.200   0.000    0.00
   7.400   22.87   12.27    0.12   0.000   0.200   0.000    0.00
   7.450   23.21   12.65   -1.19   0.000   0.200   0.000    0.00
   7.500   23.84   13.01   -0.45   0.000   0.200   0.000    0.00
   7.550   23.79   16.77   -0.30   0.000   0.200   0.000    0.00
   7.600   23.83   17.30   -1.40   0.000   0.200   0.000    0.00
   7.650   24.19   16.54   -0.73   0.000   0.200   0.000    0.00
   7.700   24.64   16.39   -0.53   0.000   0.200   0.000    0.00
   7.750   23.61   17.05   -0.37   0.000   0.200   0.000    0.00
   7.800   24.06   17.87   -0.37   0.000   0.200   0.000    0.00
   7.850   23.53   16.54   -2.06   0.000   0.200   0.000    0.00
   7.900   23.53   16.14   -2.18   0.000   0.200   0.000    0.00
   7.950   23.20   16.04   -1.50   0.000   0.200   0.000    0.00
   8.000   22.63   14.01   -1.62   0.000   0.200   0.000    0.00
   8.050   22.12   12.46   -1.75   0.000   0.200   0.000    0.00
   8.100   22.84   12.64   -1.99   0.000   0.200   0.000    0.00
   8.150   23.02   12.32   -1.47   0.000   0.200   0.000    0.00
   8.200   22.70   10.78   -1.24   0.000   0.200   0.000    0.00
   8.250   22.75    8.79   -1.15   0.000   0.200   0.000    0.00
   8.300   23.02    9.77   -1.24   0.000   0.200   0.000    0.00
   8.350   22.95   10.01   -1.55   0.000   0.200   0.000    0.00
   8.400   23.25   10.89   -1.89   0.000   0.200   0.000    0.00
   8.450   23.03    7.75   -2.89   0.000   0.200   0.000    0.00
   8.500   23.87    8.78   -2.32   0.000   0.200   0.000    0.00
   8.550   23.94    7.42   -1.84   0.000   0.200   0.000    0.00
   8.600   24.16    6.76    0.39   0.000   0.200   0.000    0.00
   8.650   25.50    6.28    0.90   0.000   0.200   0.000    0.00
   8.700   25.92    3.96    1.69   0.000   0.200   0.000    0.00
   8.750   26.09    4.45    1.86   0.000   0.200   0.000    0.00
   8.800   25.77    7.88    0.99   0.000   0.200   0.000    0.00
   8.850   25.76    7.98    0.04   0.000   0.200   0.000    0.00
   8.900   26.34   10.71   -0.43   0.000   0.200   0.000    0.00
   8.950   26.26   10.24   -0.51   0.000   0.200   0.000    0.00
   9.000   26.26    8.97    0.56   0.000   0.200   0.000    0.00
   9.050   26.30    8.01   -0.16   0.000   0.200   0.000    0.00
   9.100   26.71    6.39   -0.41   0.000   0.200   0.000    0.00
   9.150   26.59    6.04    0.15   0.000   0.200   0.000    0.00
   9.200   26.08    5.33    0.03   0.000   0.200   0.000    0.00
   9.250   25.60    7.50   -0.54   0.000   0.200   0.000    0.00
   9.300   25.23    5.12   -0.96   0.000   0.200   0.000    0.00
   9.350   25.11    2.83   -0.07   0.000   0.200   0.000    0.00
   9.400   25.12    0.79    0.61   0.000   0.200   0.000    0.00
   9.450   24.74   -0.34   -0.09   0.000   0.200   0.000    0.00
   9.500   25.47    2.21   -0.26   0.000   0.200   0.000    0.00
   9.550   25.61    5.10   -0.48   0.000   0.200   0.000    0.00
   9.600   25.73    5.14   -1.46   0.000   0.200   0.000    0.00
   9.650   25.91    4.11   -0.78   0.000   0.200   0.000    0.00
   9.700   26.33    1.69   -0.74   0.000   0.200   0.000    0.00
   9.750   24.78    2.51   -1.70   0.000   0.200   0.000    0.00
   9.800   25.17    4.50   -1.30   0.000   0.200   0.000    0.00
   9.850   24.12    4.92   -1.17   0.000   0.200   0.000    0.00
   9.900   23.54    1.01   -1.69   0.000   0.200   0.000    0.00
   9.950   23.97    1.85   -2.15   0.000   0.200   0.000    0.00
  10.000   23.94    2.91   -1.15   0.000   0.200   0.000    0.00
  10.050   23.58    1.85   -0.12   0.000   0.200   0.000    0.00
  10.100   23.54    1.12   -1.12   0.000   0.200   0.000    0.00
  10.150   22.83    2.58   -1.56   0.000   0.200   0.000    0.00
  10.200   23.25    3.07   -2.55   0.000   0.200   0.000    0.00
  10.250   23.15    1.99   -1.90   0.000   0.200   0.000    0.00
  10.300   22.76    2.98   -0.85   0.000   0.200   0.000    0.00
  10.350   21.67    4.58   -0.80   0.000   0.200   0.000    0.00
  10.400   21.89    6.65   -0.32   0.000   0.200   0.000    0.00
  10.450   22.76    5.23   -1.15   0.000   0.200   0.000    0.00
  10.500   23.99    7.53   -1.40   0.000   0.200   0.000    0.00
  10.550   23.99    6.57   -2.88   0.000   0.200   0.000    0.00
  10.600   23.04    5.15   -1.21   0.000   0.200   0.000    0.00
  10.650   22.58    2.70    0.88   0.000   0.200   0.000    0.00
  10.700   22.84    2.24    0.90   0.000   0.200   0.000    0.00
  10.750   22.88    4.69    1.50   0.000   0.200   0.000    0.00
  10.800   22.52    3.64    0.85   0.000   0.200   0.000    0.00
  10.850   23.77    1.94    0.24   0.000   0.200   0.000    0.00
  10.900   24.27    3.42    0.45   0.000   0.200   0.000    0.00
  10.950   23.70    4.66    0.40   0.000   0.200   0.000    0.00
  11.000   22.73    3.62   -0.20   0.000   0.200   0.000    0.00
  11.050   22.35    4.30    0.20   0.000   0.200   0.000    0.00
  11.100   21.48    4.39    0.52   0.000   0.200   0.000    0.00
  11.150   21.83    4.53   -0.44   0.000   0.200   0.000    0.00
  11.200   21.94    4.20    0.20   0.000   0.200   0.000    0.00
  11.250   21.99    2.18    1.27   0.000   0.200   0.000    0.00
  11.300   22.31    0.77    1.81   0.000   0.200   0.000    0.00
  11.350   21.79    2.81    1.92   0.000   0.200   0.000    0.00
  11.400   20.84    2.91    2.76   0.000   0.200   0.000    0.00
  11.450   20.92    3.05    2.00   0.000   0.200   0.000    0.00
  11.500   21.61    2.88    1.81   0.000   0.200   0.000    0.00
  11.550   21.83    1.20    1.26   0.000   0.200   0.000    0.00
  11.600   22.16    2.06    1.47   0.000   0.200   0.000    0.00
  11.650   22.57    3.44    2.38   0.000   0.200   0.000    0.00
  11.700   22.51    4.50    1.08   0.000   0.200   0.000    0.00
  11.750   21.76    3.50    0.84   0.000   0.200   0.000    0.00
  11.800   21.52    3.98    0.30   0.000   0.200   0.000    0.00
  11.850   20.55    5.77   -0.26   0.000   0.200   0.000    0.00
  11.900   19.98    3.58    0.18   0.000   0.200   0.000    0.00
  11.950   20.08    4.51   -1.06   0.000   0.200   0.000    0.00
  12.000   20.50    4.22   -0.75   0.000   0.200   0.000    0.00
  12.050   20.42    2.87   -1.52   0.000   0.200   0.000    0.00
  12.100   18.87    1.57   -1.03   0.000   0.200   0.000    0.00
  12.150   19.56    0.40   -1.46   0.000   0.200   0.000    0.00
  12.200   19.69    0.50   -0.44   0.000   0.200   0.000    0.00
  12.250   19.68   -1.58   -0.96   0.000   0.200   0.000    0.00
  12.300   19.27    1.22   -1.07   0.000   0.200   0.000    0.00
  12.350   18.36    2.09   -0.73   0.000   0.200   0.000    0.00
  12.400   19.34    5.00    0.41   0.000   0.200   0.000    0.00
  12.450   19.36    2.38   -1.38   0.000   0.200   0.000    0.00
  12.500   18.64    2.52   -2.38   0.000   0.200   0.000    0.00
  12.550   17.86    3.87   -1.34   0.000   0.200   0.000    0.00
  12.600   18.67    2.71   -1.58   0.000   0.200   0.000    0.00
  12.650   19.09    1.56   -1.27   0.000   0.200   0.000    0.00
  12.700   20.46    1.08   -0.43   0.000   0.200   0.000    0.00
  12.750   20.72    2.92   -0.69   0.000   0.200   0.000    0.00
  12.800   20.05    6.73   -0.40   0.000   0.200   0.000    0.00
  12.850   20.38    5.85   -0.95   0.000   0.200   0.000    0.00
  12.900   19.47    7.10   -0.78   0.000   0.200   0.000    0.00
  12.950   18.69   10.41   -0.90   0.000   0.200   0.000    0.00
  13.000   19.26    9.74   -0.27   0.000   0.200   0.000    0.00
  13.050   18.55    7.85   -0.67   0.000   0.200   0.000    0.00
  13.100   19.80    7.93    0.05   0.000   0.200   0.000    0.00
  13.150   19.99    5.24    0.73   0.000   0.200   0.000    0.00
  13.200   20.90    4.47    0.49   0.000   0.200   0.000    0.00
  13.250   21.03    1.92    0.72   0.000   0.200   0.000    0.00
  13.300   21.20    0.32    0.89   0.000   0.200   0.000    0.00
  13.350   21.32    0.40    1.51   0.000   0.200   0.000    0.00
  13.400   20.49   -0.75    0.57   0.000   0.200   0.000    0.00
  13.450   20.40    1.58    0.65   0.000   0.200   0.000    0.00
  13.500   20.80    6.05   -0.53   0.000   0.200   0.000    0.00
  13.550   21.31    5.58   -0.21   0.000   0.200   0.000    0.00
  13.600   21.07    7.13    0.21   0.000   0.200   0.000    0.00
  13.650   22.05    5.91    0.23   0.000   0.200   0.000    0.00
  13.700   22.70    8.57   -0.30   0.000   0.200   0.000    0.00
  13.750   22.06    5.19   -0.58   0.000   0.200   0.000    0.00
  13.800   21.97    6.17   -0.12   0.000   0.200   0.000    0.00
  13.850   21.21    6.48   -0.16   0.000   0.200   0.000    0.00
  13.900   21.42    0.66   -0.05   0.000   0.200   0.000    0.00
  13.950   21.35    0.27    0.59   0.000   0.200   0.000    0.00
  14.000   20.30   -0.70    0.58   0.000   0.200   0.000    0.00
  14.050   20.82   -1.34    0.62   0.000   0.200   0.000    0.00
  14.100   20.67   -3.15    1.16   0.000   0.200   0.000    0.00
  14.150   20.72   -3.21   -0.17   0.000   0.200   0.000    0.00
  14.200   20.63   -2.58    0.61   0.000   0.200   0.000    0.00
  14.250   20.50   -4.29    1.24   0.000   0.200   0.000    0.00
  14.300   21.02    0.06    1.52   0.000   0.200   0.000    0.00
  14.350   20.60    1.93    1.61   0.000   0.200   0.000    0.00
  14.400   20.74    0.71    2.09   0.000   0.200   0.000    0.00
  14.450   19.94    1.30    1.20   0.000   0.200   0.000    0.00
  14.500   19.98    4.63    0.31   0.000   0.200   0.000    0.00
  14.550   18.99    6.92    0.49   0.000   0.200   0.000    0.00
  14.600   18.78    4.66    0.92   0.000   0.200   0.000    0.00
  14.650   18.87    4.38    0.35   0.000   0.200   0.000    0.00
  14.700   19.63    5.52   -0.32   0.000   0.200   0.000    0.00
  14.750   20.49    2.31    0.80   0.000   0.200   0.000    0.00
  14.800   20.74    2.66    1.29   0.000   0.200   0.000    0.00
  14.850   20.79    6.41    1.40   0.000   0.200   0.000    0.00
  14.900   20.86    4.17    0.42   0.000   0.200   0.000    0.00
  14.950   21.32    4.55    0.45   0.000   0.200   0.000    0.00
  15.000   22.02    7.28    0.07   0.000   0.200   0.000    0.00
  15.050   21.04    8.22    0.11   0.000   0.200   0.000    0.00
  15.100   20.32   14.46    1.09   0.000   0.200   0.000    0.00
  15.150   19.94   12.05    0.41   0.000   0.200   0.000    0.00
  15.200   19.41   11.43    0.32   0.000   0.200   0.000    0.00
  15.250   19.76    5.85   -0.45   0.000   0.200   0.000    0.00
  15.300   20.22    4.13   -0.62   0.000   0.200   0.000    0.00
  15.350   19.45    5.36    0.11   0.000   0.200   0.000    0.00
  15.400   20.20    8.32    0.16   0.000   0.200   0.000    0.00
  15.450   20.47   12.38   -0.14   0.000   0.200   0.000    0.00
  15.500   20.90   14.33   -1.28   0.000   0.200   0.000    0.00
  15.550   20.84   13.30    0.05   0.000   0.200   0.000    0.00
  15.600   21.01   11.71    0.09   0.000   0.200   0.000    0.00
  15.650   20.02    7.65   -0.26   0.000   0.200   0.000    0.00
  15.700   19.56    7.51   -1.12   0.000   0.200   0.000    0.00
  15.750   19.98    4.89   -2.15   0.000   0.200   0.000    0.00
  15.800   19.77    5.11   -0.99   0.000   0.200   0.000    0.00
  15.850   20.16    6.73    0.29   0.000   0.200   0.000    0.00
  15.900   20.00    9.52    0.15   0.000   0.200   0.000    0.00
  15.950   20.89   11.22    0.52   0.000   0.200   0.000    0.00
  16.000   21.77    9.32    1.30   0.000   0.200   0.000    0.00
  16.050   21.12    8.35    1.28   0.000   0.200   0.000    0.00
  16.100   20.89    7.54    1.29   0.000   0.200   0.000    0.00
  16.150   20.58    6.70    1.00   0.000   0.200   0.000    0.00
  16.200   19.59    4.76    1.45   0.000   0.200   0.000    0.00
  16.250   18.98    3.81    1.49   0.000   0.200   0.000    0.00
  16.300   17.82    6.09    2.31   0.000   0.200   0.000    0.00
  16.350   18.00   10.86    1.15   0.000   0.200   0.000    0.00
  16.400   17.88   15.78    1.29   0.000   0.200   0.000    0.00
  16.450   18.63   12.57    0.85   0.000   0.200   0.000    0.00
  16.500   18.31   11.02    0.07   0.000   0.200   0.000    0.00
  16.550   18.17   13.27    1.44   0.000   0.200   0.000    0.00
  16.600   18.18   11.71    0.70   0.000   0.200   0.000    0.00
  16.650   18.70   12.76    0.55   0.000   0.200   0.000    0.00
  16.700   17.78   14.94    1.02   0.000   0.200   0.000    0.00
  16.750   18.34   12.64    1.22   0.000   0.200   0.000    0.00
  16.800   18.17   15.03    1.19   0.000   0.200   0.000    0.00
  16.850   18.64   14.57    0.97   0.000   0.200   0.000    0.00
  16.900   18.54   10.26    1.80   0.000   0.200   0.000    0.00
  16.950   18.69    4.06    2.46   0.000   0.200   0.000    0.00
  17.000   19.51    5.94    2.62   0.000   0.200   0.000    0.00
  17.050   19.29    4.14    1.89   0.000   0.200   0.000    0.00
  17.100   19.23    1.84    1.35   0.000   0.200   0.000    0.00
  17.150   19.83    2.46    1.37   0.000   0.200   0.000    0.00
  17.200   19.16    7.32    1.68   0.000   0.200   0.000    0.00
  17.250   19.00    8.84    2.76   0.000   0.200   0.000    0.00
  17.300   20.13    7.66    3.40   0.000   0.200   0.000    0.00
  17.350   21.02    7.65    3.57   0.000   0.200   0.000    0.00
  17.400   21.54    6.57    4.01   0.000   0.200   0.000    0.00
  17.450   22.27    4.06    2.98   0.000   0.200   0.000    0.00
  17.500   22.97    4.58    2.59   0.000   0.200   0.000    0.00
  17.550   21.55    5.13    2.00   0.000   0.200   0.000    0.00
  17.600   21.50    5.39    1.22   0.000   0.200   0.000    0.00
  17.650   22.58    7.83    1.30   0.000   0.200   0.000    0.00
  17.700   22.64    9.82    1.98   0.000   0.200   0.000    0.00
  17.750   21.89   10.15    2.51   0.000   0.200   0.000    0.00
  17.800   21.03   10.26    2.15   0.000   0.200   0.000    0.00
  17.850   21.14   11.16    1.08   0.000   0.200   0.000    0.00
  17.900   21.45    9.15    0.95   0.000   0.200   0.000    0.00
  17.950   22.35    5.65    1.08   0.000   0.200   0.000    0.00
  18.000   21.70    6.57    0.97   0.000   0.200   0.000    0.00
  18.050   20.97    5.17    1.32   0.000   0.200   0.000    0.00
  18.100   21.01    8.68    1.61   0.000   0.200   0.000    0.00
  18.150   21.29    8.20    2.14   0.000   0.200   0.000    0.00
  18.200   21.06   10.19    1.50   0.000   0.200   0.000    0.00
  18.250   20.42   10.25    1.99   0.000   0.200   0.000    0.00
  18.300   20.56    8.68    2.01   0.000   0.200   0.000    0.00
  18.350   21.26   10.38    2.40   0.000   0.200   0.000    0.00
  18.400   21.87   10.42    2.58   0.000   0.200   0.000    0.00
  18.450   22.21   12.16    2.86   0.000   0.200   0.000    0.00
  18.500   22.59   12.30    2.19   0.000   0.200   0.000    0.00
  18.550   22.85   12.83    1.95   0.000   0.200   0.000    0.00
  18.600   23.03   11.36    2.58   0.000   0.200   0.000    0.00
  18.650   22.35    8.93    1.81   0.000   0.200   0.000    0.00
  18.700   22.82    9.93    1.93   0.000   0.200   0.000    0.00
  18.750   22.88    9.47    2.84   0.000   0.200   0.000    0.00
  18.800   21.98   10.80    1.67   0.000   0.200   0.000    0.00
  18.850   22.14   11.67    1.16   0.000   0.200   0.000    0.00
  18.900   21.48   13.44    0.37   0.000   0.200   0.000    0.00
  18.950   21.82   15.25    0.49   0.000   0.200   0.000    0.00
  19.000   23.14   12.87    0.14   0.000   0.200   0.000    0.00
  19.050   22.93   11.49    2.17   0.000   0.200   0.000    0.00
  19.100   23.44   10.78    3.34   0.000   0.200   0.000    0.00
  19.150   23.01    7.99    3.02   0.000   0.200   0.000    0.00
  19.200   22.46    7.94    3.74   0.000   0.200   0.000    0.00
  19.250   22.27    8.54    4.14   0.000   0.200   0.000    0.00
  19.300   22.45   11.02    4.13   0.000   0.200   0.000    0.00
  19.350   23.37   13.74    4.31   0.000   0.200   0.000    0.00
  19.400   23.09   13.45    4.11   0.000   0.200   0.000    0.00
  19.450   21.39   16.17    3.43   0.000   0.200   0.000    0.00
  19.500   20.99   17.47    2.95   0.000   0.200   0.000    0.00
  19.550   22.28   17.67    2.56   0.000   0.200   0.000    0.00
  19.600   22.34   18.13    1.97   0.000   0.200   0.000    0.00
  19.650   22.27   19.77    2.42   0.000   0.200   0.000    0.00
  19.700   20.88   17.50    2.26   0.000   0.200   0.000    0.00
  19.750   20.96   17.11    2.91   0.000   0.200   0.000    0.00
  19.800   20.35   15.02    2.69   0.000   0.200   0.000    0.00
  19.850   20.76   11.03    3.24   0.000   0.200   0.000    0.00
  19.900   20.49   10.81    3.68   0.000   0.200   0.000    0.00
  19.950   20.90    8.31    2.73   0.000   0.200   0.000    0.00
  20.000   20.79    7.62    2.55   0.000   0.200   0.000    0.00
  20.050   20.37    8.43    1.44   0.000   0.200   0.000    0.00
  20.100   20.64    9.16    1.42   0.000   0.200   0.000    0.00
  20.150   20.84   10.75    2.08   0.000   0.200   0.000    0.00
  20.200   20.61   14.85    0.83   0.000   0.200   0.000    0.00
  20.250   20.70   14.67    0.92   0.000   0.200   0.000    0.00
  20.300   20.60   16.13    0.72   0.000   0.200   0.000    0.00
  20.350   21.38   17.90   -0.04   0.000   0.200   0.000    0.00
  20.400   21.15   15.18   -0.51   0.000   0.200   0.000    0.00
  20.450   21.61   17.20    0.25   0.000   0.200   0.000    0.00
  20.500   22.72   14.82    0.10   0.000   0.200   0.000    0.00
  20.550   22.50    9.67   -0.22   0.000   0.200   0.000    0.00
  20.600   21.75    8.42   -0.45   0.000   0.200   0.000    0.00
  20.650   21.61    6.61    0.14   0.000   0.200   0.000    0.00
  20.700   20.88    6.24   -0.12   0.000   0.200   0.000    0.00
  20.750   19.62    6.42   -0.16   0.000   0.200   0.000    0.00
  20.800   20.45    5.85   -1.06   0.000   0.200   0.000    0.00
  20.850   20.89    6.03    0.18   0.000   0.200   0.000    0.00
  20.900   20.94    7.33    0.62   0.000   0.200   0.000    0.00
  20.950   21.32    6.94    0.28   0.000   0.200   0.000    0.00
  21.000   22.07    8.94    0.62   0.000   0.200   0.000    0.00
  21.050   23.27    8.72    0.42   0.000   0.200   0.000    0.00
  21.100   22.85    8.28   -0.48   0.000   0.200   0.000    0.00
  21.150   22.75    7.85    0.02   0.000   0.200   0.000    0.00
  21.200   22.95    6.02   -0.36   0.000   0.200   0.000    0.00
  21.250   23.13    9.03   -0.32   0.000   0.200   0.000    0.00
  21.300   22.87    6.56    0.54   0.000   0.200   0.000    0.00
  21.350   22.44    4.98   -0.48   0.000   0.200   0.000    0.00
  21.400   22.22    4.70   -1.04   0.000   0.200   0.000    0.00
  21.450   23.82    8.00   -1.38   0.000   0.200   0.000    0.00
  21.500   22.29    9.87   -0.90   0.000   0.200   0.000    0.00
  21.550   21.92   11.87    0.75   0.000   0.200   0.000    0.00
  21.600   21.25   15.44    0.79   0.000   0.200   0.000    0.00
  21.650   20.96   15.43    0.86   0.000   0.200   0.000    0.00
  21.700   21.83   15.62    1.43   0.000   0.200   0.000    0.00
  21.750   21.93   14.40    1.87   0.000   0.200   0.000    0.00
  21.800   21.79   14.26    1.24   0.000   0.200   0.000    0.00
  21.850   20.79   16.61    1.23   0.000   0.200   0.000    0.00
  21.900   20.76   16.11    0.98   0.000   0.200   0.000    0.00
  21.950   20.19   13.74    1.98   0.000   0.200   0.000    0.00
  22.000   20.81    9.94    2.10   0.000   0.200   0.000    0.00
  22.050   20.33    9.39    1.81   0.000   0.200   0.000    0.00
  22.100   20.71    8.79    1.17   0.000   0.200   0.000    0.00
  22.150   21.57    9.48    1.45   0.000   0.200   0.000    0.00
  22.200   21.41   10.04    1.29   0.000   0.200   0.000    0.00
  22.250   20.30    8.26    1.40   0.000   0.200   0.000    0.00
  22.300   20.01    6.64    1.22   0.000   0.200   0.000    0.00
  22.350   19.65    5.78    1.40   0.000   0.200   0.000    0.00