! This hub-height wind-speed file was generated by TurbSim (v1.06.00, 21-Sep-2012) on 16-Jun-2018 at 18:31:37.
!
! The requested statistics for this data were:
!    Mean Total Wind Speed =   11.000 m/s
!    Turbulence Intensity  =   17.627%
!
!   Time  HorSpd  WndDir  VerSpd  HorShr  VerShr  LnVShr  GstSpd
!  (sec)   (m/s)   (deg)   (m/s)     (-)     (-)     (-)   (m/s)
   0.000    9.97   -5.03    1.70   0.000   0.200   0.000    0.00
   0.050    9.64   -4.18    1.66   0.000   0.200   0.000    0.00
   0.100    9.41   -6.24    1.31   0.000   0.200   0.000    0.00
   0.150    9.68   -5.65    1.30   0.000   0.200   0.000    0.00
   0.200    9.71    0.70    1.03   0.000   0.200   0.000    0.00
   0.250    9.92    0.13    0.96   0.000   0.200   0.000    0.00
   0.300   10.18    2.26    0.51   0.000   0.200   0.000    0.00
   0.350   10.31   -1.01    0.66   0.000   0.200   0.000    0.00
   0.400   10.07   -1.44    0.42   0.000   0.200   0.000    0.00
   0.450    9.87    1.05    0.09   0.000   0.200   0.000    0.00
   0.500    9.85    1.78   -0.11   0.000   0.200   0.000    0.00
   0.550    9.39    0.13   -0.31   0.000   0.200   0.000    0.00
   0.600    9.24    0.07   -0.26   0.000   0.200   0.000    0.00
   0.650    9.04    1.73   -0.50   0.000   0.200   0.000    0.00
   0.700    9.21   -0.36   -0.84   0.000   0.200   0.000    0.00
   0.750    9.27    1.47   -0.48   0.000   0.200   0.000    0.00
   0.800    8.67    1.21    0.09   0.000   0.200   0.000    0.00
   0.850    9.17   -2.11   -0.14   0.000   0.200   0.000    0.00
   0.900    8.85   -1.59   -0.56   0.000   0.200   0.000    0.00
   0.950    8.91   -2.22   -0.45   0.000   0.200   0.000    0.00
   1.000    9.00   -1.36   -0.49   0.000   0.200   0.000    0.00
   1.050    8.70   -2.15   -0.47   0.000   0.200   0.000    0.00
   1.100    8.37   -2.83   -0.23   0.000   0.200   0.000    0.00
   1.150    8.12   -0.61   -0.18   0.000   0.200   0.000    0.00
   1.200    8.37   -1.01   -0.24   0.000   0.200   0.000    0.00
   1.250    8.47   -5.80   -0.15   0.000   0.200   0.000    0.00
   1.300    8.50   -4.77    0.69   0.000   0.200   0.000    0.00
   1.350    8.74   -2.07    0.65   0.000   0.200   0.000    0.00
   1.400    8.91   -3.36    1.42   0.000   0.200   0.000    0.00
   1.450    8.47   -3.78    0.94   0.000   0.200   0.000    0.00
   1.500    8.54   -4.24    0.17   0.000   0.200   0.000    0.00
   1.550    8.86   -5.16    0.00   0.000   0.200   0.000    0.00
   1.600    8.65   -3.07   -0.16   0.000   0.200   0.000    0.00
   1.650    8.74   -4.06    0.22   0.000   0.200   0.000    0.00
   1.700    8.26   -3.44    0.06   0.000   0.200   0.000    0.00
   1.750    8.43   -4.12    0.09   0.000   0.200   0.000    0.00
   1.800    8.41   -1.87    0.13   0.000   0.200   0.000    0.00
   1.850    8.49   -3.76   -0.32   0.000   0.200   0.000    0.00
   1.900    8.20   -2.99   -0.42   0.000   0.200   0.000    0.00
   1.950    8.04   -3.52   -0.54   0.000   0.200   0.000    0.00
   2.000    7.75   -1.33   -0.54   0.000   0.200   0.000    0.00
   2.050    7.50    1.93   -0.12   0.000   0.200   0.000    0.00
   2.100    7.61   -2.97    0.09   0.000   0.200   0.000    0.00
   2.150    7.81   -0.75    0.26   0.000   0.200   0.000    0.00
   2.200    8.11   -0.90   -0.13   0.000   0.200   0.000    0.00
   2.250    8.64   -1.68   -0.27   0.000   0.200   0.000    0.00
   2.300    8.65   -3.03    0.03   0.000   0.200   0.000    0.00
   2.350    8.99   -3.67    0.17   0.000   0.200   0.000    0.00
   2.400    9.72   -0.58   -0.21   0.000   0.200   0.000    0.00
   2.450    9.72   -1.45   -0.17   0.000   0.200   0.000    0.00
   2.500    9.83    0.35   -0.42   0.000   0.200   0.000    0.00
   2.550    9.56   -0.28    0.22   0.000   0.200   0.000    0.00
   2.600    9.46   -2.25    0.16   0.000   0.200   0.000    0.00
   2.650    9.01   -0.90   -0.32   0.000   0.200   0.000    0.00
   2.700    8.94    1.62   -0.29   0.000   0.200   0.000    0.00
   2.750    9.71    0.98    0.11   0.000   0.200   0.000    0.00
   2.800    9.30    4.82   -0.09   0.000   0.200   0.000    0.00
   2.850    9.22    5.98   -0.59   0.000   0.200   0.000    0.00
   2.900    9.06    2.06   -0.78   0.000   0.200   0.000    0.00
   2.950    9.18    4.32   -1.02   0.000   0.200   0.000    0.00
   3.000    8.43    6.36   -0.82   0.000   0.200   0.000    0.00
   3.050    8.45    2.35   -0.82   0.000   0.200   0.000    0.00
   3.100    8.19    0.23   -0.38   0.000   0.200   0.000    0.00
   3.150    8.44    0.23    0.22   0.000   0.200   0.000    0.00
   3.200    8.56    1.01    0.07   0.000   0.200   0.000    0.00
   3.250    8.42    0.99   -0.36   0.000   0.200   0.000    0.00
   3.300    9.02    1.13   -1.00   0.000   0.200   0.000    0.00
   3.350    9.83    3.58   -0.84   0.000   0.200   0.000    0.00
   3.400   10.03    3.94   -0.46   0.000   0.200   0.000    0.00
   3.450   10.07    3.17   -0.90   0.000   0.200   0.000    0.00
   3.500    9.95    4.04   -0.67   0.000   0.200   0.000    0.00
   3.550    9.81   -1.56   -0.27   0.000   0.200   0.000    0.00
   3.600   10.08    1.11   -0.79   0.000   0.200   0.000    0.00
   3.650   10.24    3.10   -0.62   0.000   0.200   0.000    0.00
   3.700   10.27   -0.26   -0.54   0.000   0.200   0.000    0.00
   3.750   10.07    0.84    0.04   0.000   0.200   0.000    0.00
   3.800   10.28    6.30    0.30   0.000   0.200   0.000    0.00
   3.850   10.53    5.47    0.18   0.000   0.200   0.000    0.00
   3.900   10.73    8.27    0.43   0.000   0.200   0.000    0.00
   3.950   11.11    8.88    0.41   0.000   0.200   0.000    0.00
   4.000   10.78    7.41    0.37   0.000   0.200   0.000    0.00
   4.050   11.06    9.02   -0.29   0.000   0.200   0.000    0.00
   4.100   11.09    8.76   -0.37   0.000   0.200   0.000    0.00
   4.150   10.76    9.80   -0.75   0.000   0.200   0.000    0.00
   4.200   10.74    8.89   -0.69   0.000   0.200   0.000    0.00
   4.250   10.60   11.66   -0.11   0.000   0.200   0.000    0.00
   4.300   10.75   13.53    0.38   0.000   0.200   0.000    0.00
   4.350   10.63   11.74    0.66   0.000   0.200   0.000    0.00
   4.400   10.62   13.63    0.73   0.000   0.200   0.000    0.00
   4.450   10.67   13.78    0.46   0.000   0.200   0.000    0.00
   4.500   10.48    9.49    0.35   0.000   0.200   0.000    0.00
   4.550   10.31    9.05   -0.20   0.000   0.200   0.000    0.00
   4.600    9.84   11.88   -0.49   0.000   0.200   0.000    0.00
   4.650    9.68   11.45   -0.34   0.000   0.200   0.000    0.00
   4.700    9.93   12.80   -0.15   0.000   0.200   0.000    0.00
   4.750    9.70   13.09    0.13   0.000   0.200   0.000    0.00
   4.800    9.23   12.58   -0.14   0.000   0.200   0.000    0.00
   4.850    9.34   13.05   -0.22   0.000   0.200   0.000    0.00
   4.900    9.69   12.25   -0.08   0.000   0.200   0.000    0.00
   4.950    9.70   11.73   -0.13   0.000   0.200   0.000    0.00
   5.000   10.06   11.28   -0.16   0.000   0.200   0.000    0.00
   5.050   10.33   14.39    0.20   0.000   0.200   0.000    0.00
   5.100   10.70   13.08    0.81   0.000   0.200   0.000    0.00
   5.150   10.96   10.05    1.06   0.000   0.200   0.000    0.00
   5.200   10.88    7.80    0.92   0.000   0.200   0.000    0.00
   5.250   10.83    7.28    0.54   0.000   0.200   0.000    0.00
   5.300   11.07    8.76    0.33   0.000   0.200   0.000    0.00
   5.350   10.82    8.50    0.52   0.000   0.200   0.000    0.00
   5.400   10.51    7.53    0.09   0.000   0.200   0.000    0.00
   5.450   11.03   10.83    0.11   0.000   0.200   0.000    0.00
   5.500   10.95    9.91   -0.02   0.000   0.200   0.000    0.00
   5.550   10.96   10.54   -0.17   0.000   0.200   0.000    0.00
   5.600   10.93    8.43   -0.02   0.000   0.200   0.000    0.00
   5.650   10.97    8.39   -0.15   0.000   0.200   0.000    0.00
   5.700   10.96    6.07    0.46   0.000   0.200   0.000    0.00
   5.750   10.94    4.91    0.59   0.000   0.200   0.000    0.00
   5.800   10.56    4.49    0.24   0.000   0.200   0.000    0.00
   5.850   10.08    8.71    0.26   0.000   0.200   0.000    0.00
   5.900   10.00    8.75    0.55   0.000   0.200   0.000    0.00
   5.950   10.32    6.64    0.87   0.000   0.200   0.000    0.00
   6.000   10.43    6.66    1.01   0.000   0.200   0.000    0.00
   6.050   10.47    8.27    1.10   0.000   0.200   0.000    0.00
   6.100   10.62    9.75    1.23   0.000   0.200   0.000    0.00
   6.150   10.43    6.71    1.40   0.000   0.200   0.000    0.00
   6.200    9.55    4.21    1.41   0.000   0.200   0.000    0.00
   6.250    9.94    5.09    0.99   0.000   0.200   0.000    0.00
   6.300   10.11    3.61    1.12   0.000   0.200   0.000    0.00
   6.350    9.89    5.34    1.02   0.000   0.200   0.000    0.00
   6.400    9.63    5.95    0.52   0.000   0.200   0.000    0.00
   6.450    9.92    6.98    0.42   0.000   0.200   0.000    0.00
   6.500    9.96   10.44    0.30   0.000   0.200   0.000    0.00
   6.550    9.91    8.76   -0.49   0.000   0.200   0.000    0.00
   6.600   10.19    7.94   -0.08   0.000   0.200   0.000    0.00
   6.650    9.96    6.65   -0.03   0.000   0.200   0.000    0.00
   6.700    9.74    5.69   -0.38   0.000   0.200   0.000    0.00
   6.750    9.66    6.75   -0.56   0.000   0.200   0.000    0.00
   6.800    9.64    5.04   -0.71   0.000   0.200   0.000    0.00
   6.850    9.92    2.31   -0.42   0.000   0.200   0.000    0.00
   6.900    9.98    3.32   -0.78   0.000   0.200   0.000    0.00
   6.950    9.98    1.30    0.09   0.000   0.200   0.000    0.00
   7.000    9.52   -1.58    0.76   0.000   0.200   0.000    0.00
   7.050   10.09   -2.23    0.70   0.000   0.200   0.000    0.00
   7.100    9.62   -2.44    0.33   0.000   0.200   0.000    0.00
   7.150    9.80    0.57    0.20   0.000   0.200   0.000    0.00
   7.200    9.34    0.09    0.24   0.000   0.200   0.000    0.00
   7.250    9.39   -4.82    0.68   0.000   0.200   0.000    0.00
   7.300    9.16   -6.74    0.41   0.000   0.200   0.000    0.00
   7.350    9.11   -2.04    0.34   0.000   0.200   0.000    0.00
   7.400    9.14   -0.51   -0.10   0.000   0.200   0.000    0.00
   7.450    9.66   -0.99   -0.23   0.000   0.200   0.000    0.00
   7.500    9.88   -0.97   -0.06   0.000   0.200   0.000    0.00
   7.550    9.53   -2.35   -0.17   0.000   0.200   0.000    0.00
   7.600    8.94    0.16   -0.33   0.000   0.200   0.000    0.00
   7.650    8.97   -2.68   -0.63   0.000   0.200   0.000    0.00
   7.700    9.12   -5.28   -1.07   0.000   0.200   0.000    0.00
   7.750    8.38   -3.19   -0.86   0.000   0.200   0.000    0.00
   7.800    8.62   -0.89   -0.39   0.000   0.200   0.000    0.00
   7.850    8.29    0.64   -0.48   0.000   0.200   0.000    0.00
   7.900    8.23   -5.96   -0.38   0.000   0.200   0.000    0.00
   7.950    8.85   -7.23   -0.47   0.000   0.200   0.000    0.00
   8.000    8.52   -8.66   -0.67   0.000   0.200   0.000    0.00
   8.050    8.65   -6.46   -1.14   0.000   0.200   0.000    0.00
   8.100    8.58   -5.52   -1.18   0.000   0.200   0.000    0.00
   8.150    8.34   -6.90   -0.74   0.000   0.200   0.000    0.00
   8.200    8.38   -7.69   -0.79   0.000   0.200   0.000    0.00
   8.250    8.67   -7.77   -0.15   0.000   0.200   0.000    0.00
   8.300    8.43   -2.98   -0.23   0.000   0.200   0.000    0.00
   8.350    8.95   -2.73   -0.12   0.000   0.200   0.000    0.00
   8.400    9.18   -2.18   -0.73   0.000   0.200   0.000    0.00
   8.450    9.33   -2.55   -1.27   0.000   0.200   0.000    0.00
   8.500    9.52   -0.91   -0.88   0.000   0.200   0.000    0.00
   8.550    9.35   -1.87   -1.04   0.000   0.200   0.000    0.00
   8.600    9.44   -4.83   -1.58   0.000   0.200   0.000    0.00
   8.650    9.61   -5.54   -1.32   0.000   0.200   0.000    0.00
   8.700    9.66   -4.69   -1.55   0.000   0.200   0.000    0.00
   8.750    9.86   -5.82   -1.29   0.000   0.200   0.000    0.00
   8.800    9.62   -7.73   -0.52   0.000   0.200   0.000    0.00
   8.850    9.75   -7.73   -0.43   0.000   0.200   0.000    0.00
   8.900    9.68   -6.82   -0.54   0.000   0.200   0.000    0.00
   8.950    9.73   -8.67   -0.80   0.000   0.200   0.000    0.00
   9.000    9.46   -7.26   -0.94   0.000   0.200   0.000    0.00
   9.050    9.79   -7.14   -0.90   0.000   0.200   0.000    0.00
   9.100    9.92   -6.43   -1.05   0.000   0.200   0.000    0.00
   9.150   10.14   -6.53   -1.32   0.000   0.200   0.000    0.00
   9.200    9.88   -7.84   -1.41   0.000   0.200   0.000    0.00
   9.250    9.76   -4.07   -0.82   0.000   0.200   0.000    0.00
   9.300    9.40   -4.57   -0.79   0.000   0.200   0.000    0.00
   9.350    9.55   -7.30   -0.97   0.000   0.200   0.000    0.00
   9.400    9.51   -5.00   -0.98   0.000   0.200   0.000    0.00
   9.450    9.73   -4.66   -0.48   0.000   0.200   0.000    0.00
   9.500    9.59   -3.77   -0.63   0.000   0.200   0.000    0.00
   9.550    9.98   -6.26    0.14   0.000   0.200   0.000    0.00
   9.600   10.10  -11.31    0.76   0.000   0.200   0.000    0.00
   9.650   10.18  -10.42    0.63   0.000   0.200   0.000    0.00
   9.700   10.32  -13.88   -0.26   0.000   0.200   0.000    0.00
   9.750   10.05  -12.29   -0.73   0.000   0.200   0.000    0.00
   9.800   10.06   -7.01   -0.36   0.000   0.200   0.000    0.00
   9.850   10.33   -2.96   -0.03   0.000   0.200   0.000    0.00
   9.900   10.00   -2.19   -0.12   0.000   0.200   0.000    0.00
   9.950    9.95   -5.16    0.04   0.000   0.200   0.000    0.00
  10.000   10.10   -5.05    0.66   0.000   0.200   0.000    0.00
  10.050   10.33   -5.17    0.22   0.000   0.200   0.000    0.00
  10.100   10.44   -5.12    0.49   0.000   0.200   0.000    0.00
  10.150   10.82   -6.20    0.54   0.000   0.200   0.000    0.00
  10.200   11.45   -6.82    0.66   0.000   0.200   0.000    0.00
  10.250   11.25   -5.55    0.56   0.000   0.200   0.000    0.00
  10.300   10.97   -3.71    0.35   0.000   0.200   0.000    0.00
  10.350   11.32   -2.55    0.35   0.000   0.200   0.000    0.00
  10.400   10.77   -2.37    0.54   0.000   0.200   0.000    0.00
  10.450   10.85   -4.48    0.58   0.000   0.200   0.000    0.00
  10.500   10.22   -4.10    0.90   0.000   0.200   0.000    0.00
  10.550    9.26   -4.06    1.23   0.000   0.200   0.000    0.00
  10.600    9.79   -1.86    1.37   0.000   0.200   0.000    0.00
  10.650    9.72   -3.14    1.95   0.000   0.200   0.000    0.00
  10.700    9.78   -4.99    2.07   0.000   0.200   0.000    0.00
  10.750    9.82   -5.43    1.60   0.000   0.200   0.000    0.00
  10.800    9.80   -6.78    1.88   0.000   0.200   0.000    0.00
  10.850    9.98   -7.30    1.85   0.000   0.200   0.000    0.00
  10.900    9.68   -3.61    2.19   0.000   0.200   0.000    0.00
  10.950    9.80   -5.14    1.70   0.000   0.200   0.000    0.00
  11.000   10.50   -1.93    1.70   0.000   0.200   0.000    0.00
  11.050   11.26   -0.57    2.02   0.000   0.200   0.000    0.00
  11.100   11.37    2.06    1.77   0.000   0.200   0.000    0.00
  11.150   11.31    0.22    2.14   0.000   0.200   0.000    0.00
  11.200   11.79   -2.10    1.23   0.000   0.200   0.000    0.00
  11.250   11.88   -3.92    1.03   0.000   0.200   0.000    0.00
  11.300   10.68   -4.25    0.64   0.000   0.200   0.000    0.00
  11.350   10.38   -3.72    0.58   0.000   0.200   0.000    0.00
  11.400   10.96   -3.24    0.74   0.000   0.200   0.000    0.00
  11.450   10.81   -4.78    0.59   0.000   0.200   0.000    0.00
  11.500   10.80   -3.81    0.73   0.000   0.200   0.000    0.00
  11.550   10.92   -4.85    0.57   0.000   0.200   0.000    0.00
  11.600   10.87   -2.41    0.67   0.000   0.200   0.000    0.00
  11.650   10.41    0.54    0.39   0.000   0.200   0.000    0.00
  11.700   10.46    1.90    0.44   0.000   0.200   0.000    0.00
  11.750   10.35    2.08    0.18   0.000   0.200   0.000    0.00
  11.800   10.43    0.08    0.48   0.000   0.200   0.000    0.00
  11.850   10.90   -2.48    0.64   0.000   0.200   0.000    0.00
  11.900   11.04    1.87    0.82   0.000   0.200   0.000    0.00
  11.950   11.71    1.97    0.97   0.000   0.200   0.000    0.00
  12.000   11.55    1.55    0.73   0.000   0.200   0.000    0.00
  12.050   11.01    2.89    1.31   0.000   0.200   0.000    0.00
  12.100   11.18    2.97    0.78   0.000   0.200   0.000    0.00
  12.150   11.00    5.02    0.51   0.000   0.200   0.000    0.00
  12.200   11.02    4.99    0.61   0.000   0.200   0.000    0.00
  12.250   11.61   -0.90    0.26   0.000   0.200   0.000    0.00
  12.300   11.49    0.59    0.12   0.000   0.200   0.000    0.00
  12.350   11.05    0.63    0.85   0.000   0.200   0.000    0.00
  12.400   10.90    1.11    1.01   0.000   0.200   0.000    0.00
  12.450   10.34   -1.58    0.39   0.000   0.200   0.000    0.00
  12.500    9.89    2.03    0.45   0.000   0.200   0.000    0.00
  12.550   10.77    4.15   -0.02   0.000   0.200   0.000    0.00
  12.600   10.96    5.84    0.42   0.000   0.200   0.000    0.00
  12.650   10.90    6.51    0.21   0.000   0.200   0.000    0.00
  12.700   11.36    6.67    0.22   0.000   0.200   0.000    0.00
  12.750   11.12    8.22   -0.63   0.000   0.200   0.000    0.00
  12.800   11.14    7.63   -1.18   0.000   0.200   0.000    0.00
  12.850   11.24    6.25   -1.01   0.000   0.200   0.000    0.00
  12.900   11.10    5.88   -0.85   0.000   0.200   0.000    0.00
  12.950   11.14    4.61   -0.97   0.000   0.200   0.000    0.00
  13.000   11.20    4.31   -1.10   0.000   0.200   0.000    0.00
  13.050   11.38    4.17   -0.72   0.000   0.200   0.000    0.00
  13.100   11.47    2.96   -0.46   0.000   0.200   0.000    0.00
  13.150   11.24    5.87    0.15   0.000   0.200   0.000    0.00
  13.200   11.25    7.91   -0.19   0.000   0.200   0.000    0.00
  13.250   11.09    8.75   -0.79   0.000   0.200   0.000    0.00
  13.300   10.96    9.50   -1.05   0.000   0.200   0.000    0.00
  13.350   10.58    9.23   -1.14   0.000   0.200   0.000    0.00
  13.400   10.76    8.31   -0.78   0.000   0.200   0.000    0.00
  13.450   10.83    9.61   -0.87   0.000   0.200   0.000    0.00
  13.500   10.77   12.13   -0.64   0.000   0.200   0.000    0.00
  13.550   10.68   11.65   -0.73   0.000   0.200   0.000    0.00
  13.600   11.07   10.18   -0.90   0.000   0.200   0.000    0.00
  13.650   10.81   11.88   -0.49   0.000   0.200   0.000    0.00
  13.700   10.56   12.94    0.11   0.000   0.200   0.000    0.00
  13.750   10.39   11.64    0.52   0.000   0.200   0.000    0.00
  13.800   10.82   14.47    0.53   0.000   0.200   0.000    0.00
  13.850   10.99   12.50    0.88   0.000   0.200   0.000    0.00
  13.900   10.84   12.27    0.48   0.000   0.200   0.000    0.00
  13.950   10.71   12.62    0.45   0.000   0.200   0.000    0.00
  14.000    9.85   13.43    0.07   0.000   0.200   0.000    0.00
  14.050   10.14   13.49   -0.05   0.000   0.200   0.000    0.00
  14.100   10.36   14.42   -0.98   0.000   0.200   0.000    0.00
  14.150    9.66   12.96   -0.58   0.000   0.200   0.000    0.00
  14.200    9.85   13.39   -0.48   0.000   0.200   0.000    0.00
  14.250   10.05   12.91   -0.35   0.000   0.200   0.000    0.00
  14.300    9.90   13.24   -0.50   0.000   0.200   0.000    0.00
  14.350    9.96   15.68   -0.26   0.000   0.200   0.000    0.00
  14.400   10.04   17.80   -0.46   0.000   0.200   0.000    0.00
  14.450   10.21   18.70   -0.48   0.000   0.200   0.000    0.00
  14.500   10.41   15.90   -0.67   0.000   0.200   0.000    0.00
  14.550   10.47   16.12   -0.70   0.000   0.200   0.000    0.00
  14.600   10.08   15.91   -0.63   0.000   0.200   0.000    0.00
  14.650    9.68   15.70   -0.21   0.000   0.200   0.000    0.00
  14.700    9.86   12.50   -0.38   0.000   0.200   0.000    0.00
  14.750    9.83   15.34   -0.50   0.000   0.200   0.000    0.00
  14.800    9.76   13.66   -0.96   0.000   0.200   0.000    0.00
  14.850   10.13   16.26   -1.12   0.000   0.200   0.000    0.00
  14.900   10.56   12.84   -1.19   0.000   0.200   0.000    0.00
  14.950   10.74   10.65   -1.55   0.000   0.200   0.000    0.00
  15.000   10.86    9.63   -1.53   0.000   0.200   0.000    0.00
  15.050   10.89    8.39   -1.31   0.000   0.200   0.000    0.00
  15.100   10.73    9.27   -1.31   0.000   0.200   0.000    0.00
  15.150   10.63   10.31   -1.41   0.000   0.200   0.000    0.00
  15.200   10.53    7.70   -1.82   0.000   0.200   0.000    0.00
  15.250   10.93   10.19   -1.50   0.000   0.200   0.000    0.00
  15.300   10.85   11.56   -1.67   0.000   0.200   0.000    0.00
  15.350   10.61   11.43   -1.42   0.000   0.200   0.000    0.00
  15.400   11.01    9.04   -0.96   0.000   0.200   0.000    0.00
  15.450   11.91    9.20   -0.92   0.000   0.200   0.000    0.00
  15.500   11.45    9.77   -0.92   0.000   0.200   0.000    0.00
  15.550   11.29    9.13   -1.17   0.000   0.200   0.000    0.00
  15.600   11.52    8.04   -1.45   0.000   0.200   0.000    0.00
  15.650   11.01    6.01   -1.20   0.000   0.200   0.000    0.00
  15.700   11.44    6.76   -1.10   0.000   0.200   0.000    0.00
  15.750   11.43    8.04   -1.06   0.000   0.200   0.000    0.00
  15.800   11.55    4.03   -1.39   0.000   0.200   0.000    0.00
  15.850   11.42    4.63   -1.63   0.000   0.200   0.000    0.00
  15.900   11.87    6.11   -1.21   0.000   0.200   0.000    0.00
  15.950   11.91    6.77   -0.96   0.000   0.200   0.000    0.00
  16.000   12.05    4.55   -0.44   0.000   0.200   0.000    0.00
  16.050   12.40    2.72   -0.97   0.000   0.200   0.000    0.00
  16.100   12.15    2.70   -1.42   0.000   0.200   0.000    0.00
  16.150   12.26    1.75   -1.51   0.000   0.200   0.000    0.00
  16.200   12.54    4.10   -1.14   0.000   0.200   0.000    0.00
  16.250   12.40    4.67   -1.19   0.000   0.200   0.000    0.00
  16.300   12.13    3.84   -1.28   0.000   0.200   0.000    0.00
  16.350   11.91    4.25   -1.26   0.000   0.200   0.000    0.00
  16.400   12.42    6.60   -0.68   0.000   0.200   0.000    0.00
  16.450   12.18    5.69   -0.04   0.000   0.200   0.000    0.00
  16.500   12.27    7.03   -0.28   0.000   0.200   0.000    0.00
  16.550   12.33    7.15    0.10   0.000   0.200   0.000    0.00
  16.600   11.98    7.60    0.21   0.000   0.200   0.000    0.00
  16.650   11.01    8.55    0.03   0.000   0.200   0.000    0.00
  16.700   11.01    6.02    0.05   0.000   0.200   0.000    0.00
  16.750   10.88    6.68    0.20   0.000   0.200   0.000    0.00
  16.800    9.99    2.77    0.43   0.000   0.200   0.000    0.00
  16.850   10.32    3.58    0.32   0.000   0.200   0.000    0.00
  16.900   10.93    4.29    0.36   0.000   0.200   0.000    0.00
  16.950   10.95    5.00    0.42   0.000   0.200   0.000    0.00
  17.000   11.18    3.18    0.81   0.000   0.200   0.000    0.00
  17.050   11.50    3.65    0.86   0.000   0.200   0.000    0.00
  17.100   11.46    3.71    0.74   0.000   0.200   0.000    0.00
  17.150   10.84    3.87    1.12   0.000   0.200   0.000    0.00
  17.200   11.18    6.03    0.99   0.000   0.200   0.000    0.00
  17.250   10.78    1.99    0.92   0.000   0.200   0.000    0.00
  17.300   10.99    3.36    0.77   0.000   0.200   0.000    0.00
  17.350   11.36    2.26    0.65   0.000   0.200   0.000    0.00
  17.400   11.22    1.74    0.71   0.000   0.200   0.000    0.00
  17.450   10.94    3.36    1.16   0.000   0.200   0.000    0.00
  17.500   10.37    3.61    1.91   0.000   0.200   0.000    0.00
  17.550   10.39    1.27    1.95   0.000   0.200   0.000    0.00
  17.600   10.65    0.59    1.95   0.000   0.200   0.000    0.00
  17.650   10.78    3.45    1.89   0.000   0.200   0.000    0.00
  17.700   10.75    1.03    1.13   0.000   0.200   0.000    0.00
  17.750   10.80    3.64    1.08   0.000   0.200   0.000    0.00
  17.800   11.27    4.57    1.28   0.000   0.200   0.000    0.00
  17.850   11.41    4.67    1.12   0.000   0.200   0.000    0.00
  17.900   11.32    7.04    1.04   0.000   0.200   0.000    0.00
  17.950   11.68    5.95    0.93   0.000   0.200   0.000    0.00
  18.000   11.93    7.31    1.15   0.000   0.200   0.000    0.00
  18.050   12.17    6.45    1.31   0.000   0.200   0.000    0.00
  18.100   11.74   10.74    0.63   0.000   0.200   0.000    0.00
  18.150   12.07   10.16    0.82   0.000   0.200   0.000    0.00
  18.200   12.03    9.04    1.53   0.000   0.200   0.000    0.00
  18.250   11.83    8.97    0.88   0.000   0.200   0.000    0.00
  18.300   12.32    8.57    1.17   0.000   0.200   0.000    0.00
  18.350   12.26    7.88    0.92   0.000   0.200   0.000    0.00
  18.400   11.76    5.18    0.51   0.000   0.200   0.000    0.00
  18.450   12.26    7.29    0.28   0.000   0.200   0.000    0.00
  18.500   12.44    8.26    0.56   0.000   0.200   0.000    0.00
  18.550   12.29    5.77    0.24   0.000   0.200   0.000    0.00
  18.600   11.92    6.09    0.16   0.000   0.200   0.000    0.00
  18.650   11.86    5.82    0.04   0.000   0.200   0.000    0.00
  18.700   12.35    5.85    0.56   0.000   0.200   0.000    0.00
  18.750   12.62    5.35    0.97   0.000   0.200   0.000    0.00
  18.800   12.32    5.20    0.65   0.000   0.200   0.000    0.00
  18.850   12.05    8.82    0.23   0.000   0.200   0.000    0.00
  18.900   11.85    6.74    0.07   0.000   0.200   0.000    0.00
  18.950   11.21    7.36    0.40   0.000   0.200   0.000    0.00
  19.000   11.69    6.37    0.56   0.000   0.200   0.000    0.00
  19.050   11.68    7.54    0.57   0.000   0.200   0.000    0.00
  19.100   11.54    7.40    0.78   0.000   0.200   0.000    0.00
  19.150   11.51    7.03    0.67   0.000   0.200   0.000    0.00
  19.200   11.12    6.62    0.23   0.000   0.200   0.000    0.00
  19.250   11.04    6.66    0.06   0.000   0.200   0.000    0.00
  19.300   11.20    9.01   -1.01   0.000   0.200   0.000    0.00
  19.350   10.90    9.39   -0.97   0.000   0.200   0.000    0.00
  19.400   10.30    5.50   -0.82   0.000   0.200   0.000    0.00
  19.450    9.79    2.90   -0.78   0.000   0.200   0.000    0.00
  19.500   10.38    1.74   -1.31   0.000   0.200   0.000    0.00
  19.550   10.42    3.46   -0.44   0.000   0.200   0.000    0.00
  19.600   10.46    4.50   -0.37   0.000   0.200   0.000    0.00
  19.650   10.34    6.79   -0.15   0.000   0.200   0.000    0.00
  19.700   10.35    2.70   -0.81   0.000   0.200   0.000    0.00
  19.750   10.71    0.34   -1.08   0.000   0.200   0.000    0.00
  19.800   10.77    0.50   -1.04   0.000   0.200   0.000    0.00
  19.850   10.45    2.63   -0.88   0.000   0.200   0.000    0.00
  19.900   10.46   -1.69   -1.00   0.000   0.200   0.000    0.00
  19.950   10.81   -1.22   -0.30   0.000   0.200   0.000    0.00
  20.000   10.62    0.62   -0.02   0.000   0.200   0.000    0.00
  20.050   10.37    0.22   -0.41   0.000   0.200   0.000    0.00
  20.100   10.50    0.02   -0.05   0.000   0.200   0.000    0.00
  20.150   10.57   -0.15   -0.75   0.000   0.200   0.000    0.00
  20.200   10.27    0.96   -0.88   0.000   0.200   0.000    0.00
  20.250   10.72    2.54   -1.66   0.000   0.200   0.000    0.00
  20.300   10.83    1.42   -1.64   0.000   0.200   0.000    0.00
  20.350   10.92    0.56   -2.22   0.000   0.200   0.000    0.00
  20.400   10.62   -0.83   -1.97   0.000   0.200   0.000    0.00
  20.450   10.56   -2.49   -1.53   0.000   0.200   0.000    0.00
  20.500   10.79   -5.34   -1.69   0.000   0.200   0.000    0.00
  20.550   10.31   -3.53   -1.16   0.000   0.200   0.000    0.00
  20.600   10.42   -7.38   -1.61   0.000   0.200   0.000    0.00
  20.650   10.57   -7.55   -1.37   0.000   0.200   0.000    0.00
  20.700   10.18  -10.32   -1.19   0.000   0.200   0.000    0.00
  20.750   10.08  -10.20   -1.13   0.000   0.200   0.000    0.00
  20.800   10.24  -10.38   -0.78   0.000   0.200   0.000    0.00
  20.850   10.68  -13.05   -0.91   0.000   0.200   0.000    0.00
  20.900   10.58  -10.65   -1.33   0.000   0.200   0.000    0.00
  20.950   10.77   -8.27   -1.22   0.000   0.200   0.000    0.00
  21.000   11.58   -7.87   -1.23   0.000   0.200   0.000    0.00
  21.050   11.58   -6.19   -1.27   0.000   0.200   0.000    0.00
  21.100   11.59   -5.90   -1.23   0.000   0.200   0.000    0.00
  21.150   11.46   -6.99   -1.44   0.000   0.200   0.000    0.00
  21.200   11.10   -7.48   -1.37   0.000   0.200   0.000    0.00
  21.250   11.30   -5.01   -1.69   0.000   0.200   0.000    0.00
  21.300   11.70   -5.60   -1.25   0.000   0.200   0.000    0.00
  21.350   11.27   -7.62   -1.55   0.000   0.200   0.000    0.00
  21.400   11.17   -8.16   -1.60   0.000   0.200   0.000    0.00
  21.450   11.08   -6.13   -1.57   0.000   0.200   0.000    0.00
  21.500   11.26   -7.13   -1.19   0.000   0.200   0.000    0.00
  21.550   11.28   -8.21   -0.96   0.000   0.200   0.000    0.00
  21.600   11.50   -6.03   -0.79   0.000   0.200   0.000    0.00
  21.650   11.56   -5.89   -1.50   0.000   0.200   0.000    0.00
  21.700   11.29   -6.00   -1.67   0.000   0.200   0.000    0.00
  21.750   11.57   -5.22   -1.27   0.000   0.200   0.000    0.00
  21.800   11.65   -5.39   -1.00   0.000   0.200   0.000    0.00
  21.850   11.34   -5.03   -1.30   0.000   0.200   0.000    0.00
  21.900   11.12   -3.39   -1.43   0.000   0.200   0.000    0.00
  21.950   10.94   -3.66   -1.33   0.000   0.200   0.000    0.00
  22.000   11.14   -4.77   -1.34   0.000   0.200   0.000    0.00
  22.050   11.23   -2.70   -1.09   0.000   0.200   0.000    0.00
  22.100   11.29   -1.75   -1.21   0.000   0.200   0.000    0.00
  22.150   11.31   -0.97   -1.35   0.000   0.200   0.000    0.00
  22.200   11.41   -1.79   -0.99   0.000   0.200   0.000    0.00
  22.250   11.33   -0.53   -0.83   0.000   0.200   0.000    0.00
  22.300   10.54   -3.64   -0.68   0.000   0.200   0.000    0.00
  22.350   11.01   -4.21   -0.65   0.000   0.200   0.000    0.00