! This hub-height wind-speed file was generated by TurbSim (v1.06.00, 21-Sep-2012) on 16-Jun-2018 at 18:32:10.
!
! The requested statistics for this data were:
!    Mean Total Wind Speed =   19.000 m/s
!    Turbulence Intensity  =   14.626%
!
!   Time  HorSpd  WndDir  VerSpd  HorShr  VerShr  LnVShr  GstSpd
!  (sec)   (m/s)   (deg)   (m/s)     (-)     (-)     (-)   (m/s)
   0.000   18.93    2.43   -2.45   0.000   0.200   0.000    0.00
   0.050   17.93    2.08   -2.37   0.000   0.200   0.000    0.00
   0.100   17.83    3.16   -2.07   0.000   0.200   0.000    0.00
   0.150   17.69    2.81   -2.08   0.000   0.200   0.000    0.00
   0.200   18.00    3.42   -1.57   0.000   0.200   0.000    0.00
   0.250   18.66    2.79   -1.13   0.000   0.200   0.000    0.00
   0.300   18.36    2.78   -1.97   0.000   0.200   0.000    0.00
   0.350   18.14    1.57   -2.05   0.000   0.200   0.000    0.00
   0.400   18.98    4.06   -1.14   0.000   0.200   0.000    0.00
   0.450   19.08    4.10   -0.63   0.000   0.200   0.000    0.00
   0.500   18.46    4.15   -1.13   0.000   0.200   0.000    0.00
   0.550   18.23    3.82   -1.76   0.000   0.200   0.000    0.00
   0.600   18.25    2.23   -1.66   0.000   0.200   0.000    0.00
   0.650   17.69    4.82   -2.08   0.000   0.200   0.000    0.00
   0.700   17.72    8.50   -1.95   0.000   0.200   0.000    0.00
   0.750   17.57    6.83   -1.45   0.000   0.200   0.000    0.00
   0.800   18.15    7.67   -0.74   0.000   0.200   0.000    0.00
   0.850   18.35    8.29   -1.48   0.000   0.200   0.000    0.00
   0.900   18.41    7.28   -1.61   0.000   0.200   0.000    0.00
   0.950   18.30    4.60   -1.49   0.000   0.200   0.000    0.00
   1.000   18.33    3.03   -2.00   0.000   0.200   0.000    0.00
   1.050   19.14    4.63   -1.50   0.000   0.200   0.000    0.00
   1.100   19.07    3.61   -1.84   0.000   0.200   0.000    0.00
   1.150   18.95    6.15   -1.51   0.000   0.200   0.000    0.00
   1.200   19.28    4.40   -1.67   0.000   0.200   0.000    0.00
   1.250   18.86    3.36   -2.46   0.000   0.200   0.000    0.00
   1.300   18.55    4.84   -2.21   0.000   0.200   0.000    0.00
   1.350   18.84    3.21   -2.31   0.000   0.200   0.000    0.00
   1.400   19.24    6.94   -2.23   0.000   0.200   0.000    0.00
   1.450   19.68    3.68   -1.77   0.000   0.200   0.000    0.00
   1.500   19.98    4.52   -2.36   0.000   0.200   0.000    0.00
   1.550   19.70    2.37   -2.05   0.000   0.200   0.000    0.00
   1.600   19.47    0.74   -1.82   0.000   0.200   0.000    0.00
   1.650   18.88    0.94   -2.40   0.000   0.200   0.000    0.00
   1.700   19.40    2.98   -2.64   0.000   0.200   0.000    0.00
   1.750   18.99    1.50   -2.43   0.000   0.200   0.000    0.00
   1.800   19.09   -0.12   -2.85   0.000   0.200   0.000    0.00
   1.850   18.65    2.01   -3.20   0.000   0.200   0.000    0.00
   1.900   18.81    1.92   -2.69   0.000   0.200   0.000    0.00
   1.950   18.89   -0.91   -2.13   0.000   0.200   0.000    0.00
   2.000   18.43   -2.38   -1.40   0.000   0.200   0.000    0.00
   2.050   18.26   -2.76   -2.12   0.000   0.200   0.000    0.00
   2.100   19.69   -1.76   -1.28   0.000   0.200   0.000    0.00
   2.150   19.34    1.37   -1.08   0.000   0.200   0.000    0.00
   2.200   18.37    4.40   -1.18   0.000   0.200   0.000    0.00
   2.250   17.84    2.69   -1.78   0.000   0.200   0.000    0.00
   2.300   18.23    6.08   -2.23   0.000   0.200   0.000    0.00
   2.350   17.89    7.95   -2.62   0.000   0.200   0.000    0.00
   2.400   17.52   10.75   -2.73   0.000   0.200   0.000    0.00
   2.450   18.00   13.62   -2.19   0.000   0.200   0.000    0.00
   2.500   17.27    9.47   -2.30   0.000   0.200   0.000    0.00
   2.550   16.70   10.23   -2.47   0.000   0.200   0.000    0.00
   2.600   18.02   12.01   -2.45   0.000   0.200   0.000    0.00
   2.650   18.17   10.80   -2.27   0.000   0.200   0.000    0.00
   2.700   17.88    9.74   -2.50   0.000   0.200   0.000    0.00
   2.750   17.20   10.10   -2.58   0.000   0.200   0.000    0.00
   2.800   16.65    9.88   -1.99   0.000   0.200   0.000    0.00
   2.850   17.28    4.77   -2.76   0.000   0.200   0.000    0.00
   2.900   18.07    4.39   -3.34   0.000   0.200   0.000    0.00
   2.950   18.27    5.04   -2.85   0.000   0.200   0.000    0.00
   3.000   18.50    6.18   -3.01   0.000   0.200   0.000    0.00
   3.050   19.10    7.89   -3.15   0.000   0.200   0.000    0.00
   3.100   18.11    9.48   -2.34   0.000   0.200   0.000    0.00
   3.150   17.55    8.02   -1.53   0.000   0.200   0.000    0.00
   3.200   17.51    8.68   -2.35   0.000   0.200   0.000    0.00
   3.250   17.58    6.35   -2.70   0.000   0.200   0.000    0.00
   3.300   16.11    4.57   -3.02   0.000   0.200   0.000    0.00
   3.350   16.73    5.09   -3.13   0.000   0.200   0.000    0.00
   3.400   17.39    6.00   -3.10   0.000   0.200   0.000    0.00
   3.450   17.11    5.78   -2.72   0.000   0.200   0.000    0.00
   3.500   17.33    5.53   -2.77   0.000   0.200   0.000    0.00
   3.550   17.01    7.61   -2.83   0.000   0.200   0.000    0.00
   3.600   17.01    9.29   -3.16   0.000   0.200   0.000    0.00
   3.650   16.82   12.85   -2.51   0.000   0.200   0.000    0.00
   3.700   16.57   15.44   -1.83   0.000   0.200   0.000    0.00
   3.750   16.09   12.96   -0.49   0.000   0.200   0.000    0.00
   3.800   15.57   14.69   -1.05   0.000   0.200   0.000    0.00
   3.850   15.64   12.85   -0.06   0.000   0.200   0.000    0.00
   3.900   15.35   11.74    0.53   0.000   0.200   0.000    0.00
   3.950   15.69   13.64    0.30   0.000   0.200   0.000    0.00
   4.000   15.89    8.91    0.52   0.000   0.200   0.000    0.00
   4.050   16.02   10.29    1.47   0.000   0.200   0.000    0.00
   4.100   15.45   12.00    1.44   0.000   0.200   0.000    0.00
   4.150   15.50    9.17    1.45   0.000   0.200   0.000    0.00
   4.200   16.22    7.19    1.51   0.000   0.200   0.000    0.00
   4.250   16.23    9.38    1.28   0.000   0.200   0.000    0.00
   4.300   15.65    9.97    1.83   0.000   0.200   0.000    0.00
   4.350   14.94    6.96    1.51   0.000   0.200   0.000    0.00
   4.400   15.31    8.69    1.48   0.000   0.200   0.000    0.00
   4.450   15.91    7.18    0.59   0.000   0.200   0.000    0.00
   4.500   16.28    5.15    0.08   0.000   0.200   0.000    0.00
   4.550   15.74    4.48    0.60   0.000   0.200   0.000    0.00
   4.600   16.65    5.47    0.80   0.000   0.200   0.000    0.00
   4.650   16.66    0.69    0.27   0.000   0.200   0.000    0.00
   4.700   16.36    0.89    0.29   0.000   0.200   0.000    0.00
   4.750   15.12    0.83    0.64   0.000   0.200   0.000    0.00
   4.800   15.28   -3.14    0.21   0.000   0.200   0.000    0.00
   4.850   15.19   -4.63   -0.90   0.000   0.200   0.000    0.00
   4.900   14.98   -4.10   -0.71   0.000   0.200   0.000    0.00
   4.950   15.55    2.77   -0.28   0.000   0.200   0.000    0.00
   5.000   16.33    2.93   -0.82   0.000   0.200   0.000    0.00
   5.050   16.13    5.36   -0.10   0.000   0.200   0.000    0.00
   5.100   15.58    7.78   -0.76   0.000   0.200   0.000    0.00
   5.150   16.04    5.38   -1.09   0.000   0.200   0.000    0.00
   5.200   16.35    5.55   -0.25   0.000   0.200   0.000    0.00
   5.250   16.26    4.12   -0.07   0.000   0.200   0.000    0.00
   5.300   16.34    3.33    0.37   0.000   0.200   0.000    0.00
   5.350   16.43    6.63   -0.74   0.000   0.200   0.000    0.00
   5.400   15.83    4.79   -1.23   0.000   0.200   0.000    0.00
   5.450   15.86    9.43   -0.79   0.000   0.200   0.000    0.00
   5.500   15.61   13.49   -1.47   0.000   0.200   0.000    0.00
   5.550   15.97   15.37   -1.69   0.000   0.200   0.000    0.00
   5.600   15.85   16.72   -1.31   0.000   0.200   0.000    0.00
   5.650   15.32   13.37   -0.54   0.000   0.200   0.000    0.00
   5.700   14.16   14.15   -0.65   0.000   0.200   0.000    0.00
   5.750   14.22   12.29   -0.78   0.000   0.200   0.000    0.00
   5.800   14.90   14.30   -1.31   0.000   0.200   0.000    0.00
   5.850   14.69   14.68   -0.32   0.000   0.200   0.000    0.00
   5.900   15.26   12.49    0.67   0.000   0.200   0.000    0.00
   5.950   14.97    9.23    0.39   0.000   0.200   0.000    0.00
   6.000   14.34    5.98    0.11   0.000   0.200   0.000    0.00
   6.050   14.48    5.36    0.47   0.000   0.200   0.000    0.00
   6.100   14.09    5.67    0.81   0.000   0.200   0.000    0.00
   6.150   14.26    2.60   -0.44   0.000   0.200   0.000    0.00
   6.200   14.93   -0.75    0.75   0.000   0.200   0.000    0.00
   6.250   14.73    1.79    1.13   0.000   0.200   0.000    0.00
   6.300   14.83    2.79    0.49   0.000   0.200   0.000    0.00
   6.350   14.49   -2.23   -0.47   0.000   0.200   0.000    0.00
   6.400   15.04   -1.51   -0.48   0.000   0.200   0.000    0.00
   6.450   15.00   -2.23   -0.68   0.000   0.200   0.000    0.00
   6.500   15.31   -1.67   -0.54   0.000   0.200   0.000    0.00
   6.550   15.40    1.43   -0.30   0.000   0.200   0.000    0.00
   6.600   15.22    1.32   -0.69   0.000   0.200   0.000    0.00
   6.650   15.28   -1.70   -0.16   0.000   0.200   0.000    0.00
   6.700   15.39   -2.04   -0.54   0.000   0.200   0.000    0.00
   6.750   15.02   -1.22   -0.83   0.000   0.200   0.000    0.00
   6.800   15.42   -2.16   -0.25   0.000   0.200   0.000    0.00
   6.850   14.75    0.42   -0.86   0.000   0.200   0.000    0.00
   6.900   15.00    0.29   -0.48   0.000   0.200   0.000    0.00
   6.950   15.01    0.45    0.07   0.000   0.200   0.000    0.00
   7.000   15.42   -0.59    0.36   0.000   0.200   0.000    0.00
   7.050   15.36    0.42   -0.66   0.000   0.200   0.000    0.00
   7.100   15.59    0.44   -0.29   0.000   0.200   0.000    0.00
   7.150   15.61    0.25   -0.39   0.000   0.200   0.000    0.00
   7.200   15.47   -2.06    0.38   0.000   0.200   0.000    0.00
   7.250   15.75   -1.41    0.90   0.000   0.200   0.000    0.00
   7.300   16.77    2.67    1.14   0.000   0.200   0.000    0.00
   7.350   16.41    1.55   -0.18   0.000   0.200   0.000    0.00
   7.400   16.11    0.50    0.09   0.000   0.200   0.000    0.00
   7.450   16.14    1.85    0.01   0.000   0.200   0.000    0.00
   7.500   15.37    1.99   -0.23   0.000   0.200   0.000    0.00
   7.550   16.15   -1.14   -0.11   0.000   0.200   0.000    0.00
   7.600   15.88    0.84    1.16   0.000   0.200   0.000    0.00
   7.650   15.07   -0.61    1.58   0.000   0.200   0.000    0.00
   7.700   14.28   -2.82    0.16   0.000   0.200   0.000    0.00
   7.750   14.63   -2.72   -0.57   0.000   0.200   0.000    0.00
   7.800   14.92   -3.57    0.06   0.000   0.200   0.000    0.00
   7.850   14.65   -5.88   -0.20   0.000   0.200   0.000    0.00
   7.900   15.01   -4.77   -0.55   0.000   0.200   0.000    0.00
   7.950   15.22   -5.27   -1.41   0.000   0.200   0.000    0.00
   8.000   15.38   -5.82   -0.65   0.000   0.200   0.000    0.00
   8.050   15.48   -8.26   -0.75   0.000   0.200   0.000    0.00
   8.100   15.26   -7.16   -0.97   0.000   0.200   0.000    0.00
   8.150   15.92  -11.66   -0.25   0.000   0.200   0.000    0.00
   8.200   16.27   -5.50    0.04   0.000   0.200   0.000    0.00
   8.250   16.09   -1.87   -0.74   0.000   0.200   0.000    0.00
   8.300   16.47    0.52   -0.89   0.000   0.200   0.000    0.00
   8.350   17.71    1.71   -1.66   0.000   0.200   0.000    0.00
   8.400   18.12    0.83   -2.33   0.000   0.200   0.000    0.00
   8.450   17.80   -1.08   -1.56   0.000   0.200   0.000    0.00
   8.500   17.58   -3.95   -0.94   0.000   0.200   0.000    0.00
   8.550   16.94   -4.76   -0.54   0.000   0.200   0.000    0.00
   8.600   16.81   -5.90    0.01   0.000   0.200   0.000    0.00
   8.650   16.29   -5.43   -0.50   0.000   0.200   0.000    0.00
   8.700   16.43   -1.56   -0.90   0.000   0.200   0.000    0.00
   8.750   16.66   -0.31    0.09   0.000   0.200   0.000    0.00
   8.800   16.71   -3.86    0.86   0.000   0.200   0.000    0.00
   8.850   16.25    0.57    0.58   0.000   0.200   0.000    0.00
   8.900   16.04    3.22   -0.61   0.000   0.200   0.000    0.00
   8.950   15.79    2.38   -1.23   0.000   0.200   0.000    0.00
   9.000   16.08    3.84   -0.82   0.000   0.200   0.000    0.00
   9.050   16.55    4.94   -1.25   0.000   0.200   0.000    0.00
   9.100   16.09    4.02   -0.85   0.000   0.200   0.000    0.00
   9.150   16.34    0.67   -1.55   0.000   0.200   0.000    0.00
   9.200   16.50    4.10   -1.76   0.000   0.200   0.000    0.00
   9.250   16.18    0.74   -1.58   0.000   0.200   0.000    0.00
   9.300   16.48   -2.34   -1.10   0.000   0.200   0.000    0.00
   9.350   16.33   -2.16   -0.19   0.000   0.200   0.000    0.00
   9.400   16.36   -1.83   -0.14   0.000   0.200   0.000    0.00
   9.450   16.78   -3.76   -0.47   0.000   0.200   0.000    0.00
   9.500   17.37   -6.38   -0.96   0.000   0.200   0.000    0.00
   9.550   17.50  -11.83   -1.30   0.000   0.200   0.000    0.00
   9.600   17.71  -10.76   -2.45   0.000   0.200   0.000    0.00
   9.650   18.32  -11.20   -2.21   0.000   0.200   0.000    0.00
   9.700   18.54   -9.35   -2.33   0.000   0.200   0.000    0.00
   9.750   18.34   -6.96   -1.76   0.000   0.200   0.000    0.00
   9.800   17.81  -10.01   -2.35   0.000   0.200   0.000    0.00
   9.850   18.07   -8.92   -1.91   0.000   0.200   0.000    0.00
   9.900   18.51   -7.71   -0.94   0.000   0.200   0.000    0.00
   9.950   19.44   -5.88   -1.67   0.000   0.200   0.000    0.00
  10.000   19.34   -6.34   -2.57   0.000   0.200   0.000    0.00
  10.050   18.18   -4.64   -2.80   0.000   0.200   0.000    0.00
  10.100   17.98   -7.33   -2.44   0.000   0.200   0.000    0.00
  10.150   18.49   -8.96   -2.22   0.000   0.200   0.000    0.00
  10.200   17.59   -9.77   -2.36   0.000   0.200   0.000    0.00
  10.250   17.75  -12.83   -2.71   0.000   0.200   0.000    0.00
  10.300   17.90   -9.41   -2.42   0.000   0.200   0.000    0.00
  10.350   18.29   -8.17   -1.99   0.000   0.200   0.000    0.00
  10.400   17.40   -8.61   -1.19   0.000   0.200   0.000    0.00
  10.450   17.94   -8.00   -1.17   0.000   0.200   0.000    0.00
  10.500   18.60   -7.04    0.22   0.000   0.200   0.000    0.00
  10.550   18.19   -6.04    1.18   0.000   0.200   0.000    0.00
  10.600   18.79   -3.42    1.23   0.000   0.200   0.000    0.00
  10.650   18.51   -1.15    1.17   0.000   0.200   0.000    0.00
  10.700   17.89   -1.12    0.88   0.000   0.200   0.000    0.00
  10.750   17.07   -4.71    0.98   0.000   0.200   0.000    0.00
  10.800   17.47   -2.43    1.32   0.000   0.200   0.000    0.00
  10.850   18.50   -0.70    0.74   0.000   0.200   0.000    0.00
  10.900   19.57   -1.52    0.82   0.000   0.200   0.000    0.00
  10.950   17.99   -3.27    0.88   0.000   0.200   0.000    0.00
  11.000   18.88   -3.62    0.91   0.000   0.200   0.000    0.00
  11.050   19.72   -4.90    0.39   0.000   0.200   0.000    0.00
  11.100   20.19   -7.40    0.88   0.000   0.200   0.000    0.00
  11.150   19.33   -5.09    0.93   0.000   0.200   0.000    0.00
  11.200   20.09   -3.82    0.42   0.000   0.200   0.000    0.00
  11.250   18.63    1.66    0.27   0.000   0.200   0.000    0.00
  11.300   18.75    2.28   -0.17   0.000   0.200   0.000    0.00
  11.350   19.17    1.53   -0.64   0.000   0.200   0.000    0.00
  11.400   19.32    2.32    0.09   0.000   0.200   0.000    0.00
  11.450   19.60   -1.70   -0.32   0.000   0.200   0.000    0.00
  11.500   19.86   -1.91   -0.82   0.000   0.200   0.000    0.00
  11.550   20.14   -0.23   -0.52   0.000   0.200   0.000    0.00
  11.600   20.80   -1.18   -0.75   0.000   0.200   0.000    0.00
  11.650   20.29   -1.47    0.13   0.000   0.200   0.000    0.00
  11.700   19.38   -0.78    0.01   0.000   0.200   0.000    0.00
  11.750   19.58   -1.23    1.11   0.000   0.200   0.000    0.00
  11.800   19.71   -1.43    1.23   0.000   0.200   0.000    0.00
  11.850   19.33   -0.97    1.65   0.000   0.200   0.000    0.00
  11.900   20.00    0.56    1.66   0.000   0.200   0.000    0.00
  11.950   19.32   -1.51    1.67   0.000   0.200   0.000    0.00
  12.000   18.83   -3.16    1.95   0.000   0.200   0.000    0.00
  12.050   19.52   -3.74    1.46   0.000   0.200   0.000    0.00
  12.100   19.58   -3.11    1.35   0.000   0.200   0.000    0.00
  12.150   19.66   -4.42    0.80   0.000   0.200   0.000    0.00
  12.200   19.01   -2.94    1.42   0.000   0.200   0.000    0.00
  12.250   18.03   -2.20    2.06   0.000   0.200   0.000    0.00
  12.300   18.77   -1.76    1.70   0.000   0.200   0.000    0.00
  12.350   18.35   -1.01    0.44   0.000   0.200   0.000    0.00
  12.400   17.09    1.19    0.13   0.000   0.200   0.000    0.00
  12.450   17.33   -0.98   -0.02   0.000   0.200   0.000    0.00
  12.500   16.77   -0.07   -0.23   0.000   0.200   0.000    0.00
  12.550   16.72    1.59    0.51   0.000   0.200   0.000    0.00
  12.600   17.13    0.91    1.22   0.000   0.200   0.000    0.00
  12.650   16.82   -1.73    1.68   0.000   0.200   0.000    0.00
  12.700   16.80   -2.70    1.00   0.000   0.200   0.000    0.00
  12.750   17.06   -0.97    1.33   0.000   0.200   0.000    0.00
  12.800   17.44    0.08    0.78   0.000   0.200   0.000    0.00
  12.850   17.12    1.28    0.07   0.000   0.200   0.000    0.00
  12.900   16.82   -0.06   -0.38   0.000   0.200   0.000    0.00
  12.950   16.49    0.28    0.26   0.000   0.200   0.000    0.00
  13.000   17.21   -0.20    0.88   0.000   0.200   0.000    0.00
  13.050   17.91    1.58    0.64   0.000   0.200   0.000    0.00
  13.100   17.88   -0.10   -0.02   0.000   0.200   0.000    0.00
  13.150   17.90    0.71   -0.26   0.000   0.200   0.000    0.00
  13.200   18.25    0.99   -1.01   0.000   0.200   0.000    0.00
  13.250   17.75   -4.36   -1.22   0.000   0.200   0.000    0.00
  13.300   17.36   -7.96   -0.91   0.000   0.200   0.000    0.00
  13.350   17.44   -6.40   -0.84   0.000   0.200   0.000    0.00
  13.400   17.99   -3.34   -0.44   0.000   0.200   0.000    0.00
  13.450   18.46   -5.17   -0.08   0.000   0.200   0.000    0.00
  13.500   18.31   -6.32   -0.36   0.000   0.200   0.000    0.00
  13.550   17.22   -5.15   -0.56   0.000   0.200   0.000    0.00
  13.600   16.26   -4.02   -0.67   0.000   0.200   0.000    0.00
  13.650   16.61   -3.13   -0.98   0.000   0.200   0.000    0.00
  13.700   16.88   -8.92    0.31   0.000   0.200   0.000    0.00
  13.750   18.08   -7.65   -0.49   0.000   0.200   0.000    0.00
  13.800   17.79   -8.06   -1.56   0.000   0.200   0.000    0.00
  13.850   18.14   -7.13   -0.91   0.000   0.200   0.000    0.00
  13.900   18.55   -4.48   -0.66   0.000   0.200   0.000    0.00
  13.950   18.12   -5.26   -1.23   0.000   0.200   0.000    0.00
  14.000   18.30   -6.89   -1.52   0.000   0.200   0.000    0.00
  14.050   18.01   -2.79   -0.82   0.000   0.200   0.000    0.00
  14.100   17.97   -3.68   -0.76   0.000   0.200   0.000    0.00
  14.150   17.53   -5.94   -1.18   0.000   0.200   0.000    0.00
  14.200   18.10   -7.52   -0.18   0.000   0.200   0.000    0.00
  14.250   18.17   -7.17   -0.08   0.000   0.200   0.000    0.00
  14.300   18.55   -7.10   -0.56   0.000   0.200   0.000    0.00
  14.350   17.88   -8.31   -0.83   0.000   0.200   0.000    0.00
  14.400   18.12   -6.21   -0.89   0.000   0.200   0.000    0.00
  14.450   18.03   -8.76    0.48   0.000   0.200   0.000    0.00
  14.500   18.18  -13.75    0.76   0.000   0.200   0.000    0.00
  14.550   18.29  -13.53    0.78   0.000   0.200   0.000    0.00
  14.600   17.66  -13.98    0.66   0.000   0.200   0.000    0.00
  14.650   17.51  -14.64    1.13   0.000   0.200   0.000    0.00
  14.700   17.74  -15.85    1.49   0.000   0.200   0.000    0.00
  14.750   17.37  -15.85    1.64   0.000   0.200   0.000    0.00
  14.800   16.64  -13.48    1.65   0.000   0.200   0.000    0.00
  14.850   17.52  -11.34    2.09   0.000   0.200   0.000    0.00
  14.900   17.80  -12.54    1.81   0.000   0.200   0.000    0.00
  14.950   16.74  -11.54    1.42   0.000   0.200   0.000    0.00
  15.000   16.64  -12.47    1.42   0.000   0.200   0.000    0.00
  15.050   16.65  -14.26    1.91   0.000   0.200   0.000    0.00
  15.100   17.10  -17.42    1.46   0.000   0.200   0.000    0.00
  15.150   16.95  -17.61    2.11   0.000   0.200   0.000    0.00
  15.200   16.44  -17.67    1.48   0.000   0.200   0.000    0.00
  15.250   15.79  -13.79    2.14   0.000   0.200   0.000    0.00
  15.300   16.23  -13.40    1.97   0.000   0.200   0.000    0.00
  15.350   17.34  -12.32    1.03   0.000   0.200   0.000    0.00
  15.400   16.50  -11.96    1.29   0.000   0.200   0.000    0.00
  15.450   16.91  -12.11    1.41   0.000   0.200   0.000    0.00
  15.500   16.63  -10.13    0.94   0.000   0.200   0.000    0.00
  15.550   16.61   -9.35    0.00   0.000   0.200   0.000    0.00
  15.600   16.36   -8.13   -0.77   0.000   0.200   0.000    0.00
  15.650   16.14   -5.83    0.57   0.000   0.200   0.000    0.00
  15.700   16.37   -6.93    0.72   0.000   0.200   0.000    0.00
  15.750   16.89   -5.52    0.53   0.000   0.200   0.000    0.00
  15.800   16.70   -6.53    0.86   0.000   0.200   0.000    0.00
  15.850   16.07  -12.80   -0.08   0.000   0.200   0.000    0.00
  15.900   15.39  -14.40   -0.20   0.000   0.200   0.000    0.00
  15.950   16.57  -15.90   -0.35   0.000   0.200   0.000    0.00
  16.000   16.99  -14.12   -0.12   0.000   0.200   0.000    0.00
  16.050   16.82  -16.94    0.13   0.000   0.200   0.000    0.00
  16.100   16.09  -19.05    0.24   0.000   0.200   0.000    0.00
  16.150   16.66  -17.14    0.29   0.000   0.200   0.000    0.00
  16.200   17.22  -15.18    0.20   0.000   0.200   0.000    0.00
  16.250   17.34  -14.45    0.65   0.000   0.200   0.000    0.00
  16.300   16.79  -13.81    0.57   0.000   0.200   0.000    0.00
  16.350   16.38  -17.01   -0.20   0.000   0.200   0.000    0.00
  16.400   16.96  -16.46    0.80   0.000   0.200   0.000    0.00
  16.450   17.09  -13.68    0.29   0.000   0.200   0.000    0.00
  16.500   16.62  -14.59    0.00   0.000   0.200   0.000    0.00
  16.550   17.09  -13.93    0.20   0.000   0.200   0.000    0.00
  16.600   17.10  -15.91   -0.07   0.000   0.200   0.000    0.00
  16.650   16.99  -19.78   -0.21   0.000   0.200   0.000    0.00
  16.700   17.68  -19.72   -0.47   0.000   0.200   0.000    0.00
  16.750   19.01  -19.64   -0.45   0.000   0.200   0.000    0.00
  16.800   18.22  -20.54   -1.11   0.000   0.200   0.000    0.00
  16.850   17.46  -18.06   -0.88   0.000   0.200   0.000    0.00
  16.900   17.23  -13.15   -0.76   0.000   0.200   0.000    0.00
  16.950   16.96  -14.41   -0.40   0.000   0.200   0.000    0.00
  17.000   16.98  -14.47   -0.80   0.000   0.200   0.000    0.00
  17.050   17.45  -12.14   -1.88   0.000   0.200   0.000    0.00
  17.100   17.26  -11.74   -1.52   0.000   0.200   0.000    0.00
  17.150   17.60  -13.48   -1.30   0.000   0.200   0.000    0.00
  17.200   18.08  -15.80   -0.68   0.000   0.200   0.000    0.00
  17.250   18.13  -17.61   -0.81   0.000   0.200   0.000    0.00
  17.300   18.66  -16.08   -0.88   0.000   0.200   0.000    0.00
  17.350   17.81  -18.10   -0.59   0.000   0.200   0.000    0.00
  17.400   17.28  -18.90   -0.57   0.000   0.200   0.000    0.00
  17.450   16.97  -17.05   -0.34   0.000   0.200   0.000    0.00
  17.500   16.17  -14.27   -0.01   0.000   0.200   0.000    0.00
  17.550   16.81  -13.95    0.29   0.000   0.200   0.000    0.00
  17.600   17.09  -12.17   -0.01   0.000   0.200   0.000    0.00
  17.650   17.17  -12.84    0.77   0.000   0.200   0.000    0.00
  17.700   16.46  -14.76    1.16   0.000   0.200   0.000    0.00
  17.750   16.54  -10.86    1.04   0.000   0.200   0.000    0.00
  17.800   16.96   -9.70    1.59   0.000   0.200   0.000    0.00
  17.850   17.52  -11.62    1.36   0.000   0.200   0.000    0.00
  17.900   17.17  -12.09    2.00   0.000   0.200   0.000    0.00
  17.950   17.99  -13.22    2.51   0.000   0.200   0.000    0.00
  18.000   18.77  -14.77    1.52   0.000   0.200   0.000    0.00
  18.050   19.16  -14.35    0.60   0.000   0.200   0.000    0.00
  18.100   19.38  -11.21    0.67   0.000   0.200   0.000    0.00
  18.150   19.79  -14.07    0.34   0.000   0.200   0.000    0.00
  18.200   20.40  -14.14   -0.96   0.000   0.200   0.000    0.00
  18.250   20.09  -12.95   -0.62   0.000   0.200   0.000    0.00
  18.300   19.51  -14.15   -0.56   0.000   0.200   0.000    0.00
  18.350   18.81  -14.23   -0.81   0.000   0.200   0.000    0.00
  18.400   18.82  -13.72   -0.57   0.000   0.200   0.000    0.00
  18.450   19.46  -13.33   -0.55   0.000   0.200   0.000    0.00
  18.500   19.24  -12.99   -0.36   0.000   0.200   0.000    0.00
  18.550   19.79  -11.84   -0.94   0.000   0.200   0.000    0.00
  18.600   19.37  -11.73    0.04   0.000   0.200   0.000    0.00
  18.650   20.42  -10.68    0.22   0.000   0.200   0.000    0.00
  18.700   20.61  -14.34    0.32   0.000   0.200   0.000    0.00
  18.750   20.35  -16.14    0.49   0.000   0.200   0.000    0.00
  18.800   21.00  -16.45    0.36   0.000   0.200   0.000    0.00
  18.850   20.39  -12.47   -0.12   0.000   0.200   0.000    0.00
  18.900   19.83  -11.86   -0.76   0.000   0.200   0.000    0.00
  18.950   19.77  -14.32   -0.04   0.000   0.200   0.000    0.00
  19.000   19.19  -13.55    0.35   0.000   0.200   0.000    0.00
  19.050   19.71  -13.09    0.30   0.000   0.200   0.000    0.00
  19.100   19.72  -13.69   -0.09   0.000   0.200   0.000    0.00
  19.150   19.87  -14.29   -0.37   0.000   0.200   0.000    0.00
  19.200   19.96  -15.17   -0.23   0.000   0.200   0.000    0.00
  19.250   20.24  -12.64    0.16   0.000   0.200   0.000    0.00
  19.300   20.60  -15.88   -0.23   0.000   0.200   0.000    0.00
  19.350   19.63  -17.32    0.04   0.000   0.200   0.000    0.00
  19.400   20.35  -15.91   -0.23   0.000   0.200   0.000    0.00
  19.450   20.06  -16.54   -0.72   0.000   0.200   0.000    0.00
  19.500   19.90  -18.02   -1.00   0.000   0.200   0.000    0.00
  19.550   18.63  -17.82   -1.80   0.000   0.200   0.000    0.00
  19.600   18.37  -15.30   -1.20   0.000   0.200   0.000    0.00
  19.650   18.42  -13.59   -2.45   0.000   0.200   0.000    0.00
  19.700   18.74  -12.34   -2.35   0.000   0.200   0.000    0.00
  19.750   19.01  -12.96   -2.34   0.000   0.200   0.000    0.00
  19.800   18.94  -14.03   -1.59   0.000   0.200   0.000    0.00
  19.850   18.99  -12.86   -0.34   0.000   0.200   0.000    0.00
  19.900   19.13  -12.32   -0.53   0.000   0.200   0.000    0.00
  19.950   19.67  -12.99   -0.54   0.000   0.200   0.000    0.00
  20.000   19.61  -13.33    0.29   0.000   0.200   0.000    0.00
  20.050   19.55  -12.67    0.01   0.000   0.200   0.000    0.00
  20.100   19.64  -13.15   -0.60   0.000   0.200   0.000    0.00
  20.150   19.08  -12.69   -1.47   0.000   0.200   0.000    0.00
  20.200   18.79  -13.56   -0.53   0.000   0.200   0.000    0.00
  20.250   18.79  -11.63   -0.11   0.000   0.200   0.000    0.00
  20.300   18.60  -10.15   -0.38   0.000   0.200   0.000    0.00
  20.350   19.16  -11.06   -0.21   0.000   0.200   0.000    0.00
  20.400   19.07   -8.16   -0.81   0.000   0.200   0.000    0.00
  20.450   18.72  -11.43   -1.20   0.000   0.200   0.000    0.00
  20.500   17.99  -15.07   -0.89   0.000   0.200   0.000    0.00
  20.550   17.36  -13.55   -0.51   0.000   0.200   0.000    0.00
  20.600   17.41  -12.09    0.01   0.000   0.200   0.000    0.00
  20.650   17.00   -8.30   -0.01   0.000   0.200   0.000    0.00
  20.700   16.95   -6.82   -0.27   0.000   0.200   0.000    0.00
  20.750   17.95  -10.91   -0.24   0.000   0.200   0.000    0.00
  20.800   17.91  -10.53    0.45   0.000   0.200   0.000    0.00
  20.850   17.58  -12.32   -0.01   0.000   0.200   0.000    0.00
  20.900   18.19  -11.13   -0.07   0.000   0.200   0.000    0.00
  20.950   19.23   -8.78   -0.02   0.000   0.200   0.000    0.00
  21.000   18.54   -7.86   -0.54   0.000   0.200   0.000    0.00
  21.050   19.06   -7.46   -0.45   0.000   0.200   0.000    0.00
  21.100   18.58   -6.64   -0.83   0.000   0.200   0.000    0.00
  21.150   19.04   -9.57   -1.17   0.000   0.200   0.000    0.00
  21.200   18.71  -11.17   -0.95   0.000   0.200   0.000    0.00
  21.250   18.67   -9.46   -0.84   0.000   0.200   0.000    0.00
  21.300   19.15   -8.33   -1.96   0.000   0.200   0.000    0.00
  21.350   19.45   -4.91   -2.87   0.000   0.200   0.000    0.00
  21.400   20.06   -4.61   -2.73   0.000   0.200   0.000    0.00
  21.450   20.17   -7.27   -1.71   0.000   0.200   0.000    0.00
  21.500   19.40   -7.71   -2.05   0.000   0.200   0.000    0.00
  21.550   19.44   -7.84   -1.96   0.000   0.200   0.000    0.00
  21.600   19.58   -6.06   -1.63   0.000   0.200   0.000    0.00
  21.650   19.99   -5.04   -2.59   0.000   0.200   0.000    0.00
  21.700   19.33   -4.29   -2.45   0.000   0.200   0.000    0.00
  21.750   19.32   -4.28   -1.45   0.000   0.200   0.000    0.00
  21.800   18.44   -5.58   -1.07   0.000   0.200   0.000    0.00
  21.850   18.37   -3.69   -0.97   0.000   0.200   0.000    0.00
  21.900   18.64   -3.19   -1.01   0.000   0.200   0.000    0.00
  21.950   18.76   -2.14   -1.56   0.000   0.200   0.000    0.00
  22.000   18.87   -2.38   -0.71   0.000   0.200   0.000    0.00
  22.050   19.60   -2.97   -0.57   0.000   0.200   0.000    0.00
  22.100   19.61   -2.57   -1.45   0.000   0.200   0.000    0.00
  22.150   20.29   -4.92   -1.47   0.000   0.200   0.000    0.00
  22.200   20.74   -5.17   -1.49   0.000   0.200   0.000    0.00
  22.250   20.55   -5.78   -0.99   0.000   0.200   0.000    0.00
  22.300   20.29   -8.16   -1.28   0.000   0.200   0.000    0.00
  22.350   20.37   -7.55   -1.34   0.000   0.200   0.000    0.00