! This hub-height wind-speed file was generated by TurbSim (v1.06.00, 21-Sep-2012) on 16-Jun-2018 at 18:33:49.
!
! The requested statistics for this data were:
!    Mean Total Wind Speed =   23.000 m/s
!    Turbulence Intensity  =   13.909%
!
!   Time  HorSpd  WndDir  VerSpd  HorShr  VerShr  LnVShr  GstSpd
!  (sec)   (m/s)   (deg)   (m/s)     (-)     (-)     (-)   (m/s)
   0.000   26.09    1.93   -1.33   0.000   0.200   0.000    0.00
   0.050   26.76    0.87   -0.92   0.000   0.200   0.000    0.00
   0.100   26.46    4.31   -1.37   0.000   0.200   0.000    0.00
   0.150   27.43    5.48   -1.59   0.000   0.200   0.000    0.00
   0.200   27.75    4.92   -1.16   0.000   0.200   0.000    0.00
   0.250   27.83    3.15   -2.11   0.000   0.200   0.000    0.00
   0.300   27.76    1.23   -1.94   0.000   0.200   0.000    0.00
   0.350   27.73    1.30   -2.82   0.000   0.200   0.000    0.00
   0.400   27.58    2.78   -1.49   0.000   0.200   0.000    0.00
   0.450   27.59    4.55   -0.80   0.000   0.200   0.000    0.00
   0.500   27.75    4.45   -1.01   0.000   0.200   0.000    0.00
   0.550   27.04    6.09   -1.47   0.000   0.200   0.000    0.00
   0.600   25.84    5.53   -1.96   0.000   0.200   0.000    0.00
   0.650   25.66    4.80   -1.34   0.000   0.200   0.000    0.00
   0.700   24.99    5.12   -2.34   0.000   0.200   0.000    0.00
   0.750   24.17    5.77   -2.53   0.000   0.200   0.000    0.00
   0.800   23.51   10.79   -2.96   0.000   0.200   0.000    0.00
   0.850   22.91   10.49   -2.85   0.000   0.200   0.000    0.00
   0.900   23.25    9.96   -2.21   0.000   0.200   0.000    0.00
   0.950   22.93   10.45   -1.44   0.000   0.200   0.000    0.00
   1.000   24.92   10.18   -2.31   0.000   0.200   0.000    0.00
   1.050   25.92    7.36   -2.60   0.000   0.200   0.000    0.00
   1.100   25.71    6.01   -2.41   0.000   0.200   0.000    0.00
   1.150   26.39    5.49   -0.51   0.000   0.200   0.000    0.00
   1.200   26.89    3.26   -1.43   0.000   0.200   0.000    0.00
   1.250   26.06    3.54   -2.43   0.000   0.200   0.000    0.00
   1.300   25.64    5.63   -2.26   0.000   0.200   0.000    0.00
   1.350   25.25    5.46   -2.53   0.000   0.200   0.000    0.00
   1.400   25.54    6.58   -2.27   0.000   0.200   0.000    0.00
   1.450   26.06    8.78   -0.51   0.000   0.200   0.000    0.00
   1.500   26.38    7.88    1.84   0.000   0.200   0.000    0.00
   1.550   26.45    7.77    1.13   0.000   0.200   0.000    0.00
   1.600   26.75    9.49   -0.04   0.000   0.200   0.000    0.00
   1.650   26.64    8.48    0.61   0.000   0.200   0.000    0.00
   1.700   25.65    9.38    0.43   0.000   0.200   0.000    0.00
   1.750   26.01    7.88    1.11   0.000   0.200   0.000    0.00
   1.800   26.00    7.78    2.09   0.000   0.200   0.000    0.00
   1.850   27.05   12.72    1.64   0.000   0.200   0.000    0.00
   1.900   25.73   10.33   -0.25   0.000   0.200   0.000    0.00
   1.950   25.16    8.65    0.42   0.000   0.200   0.000    0.00
   2.000   26.11    9.98   -0.58   0.000   0.200   0.000    0.00
   2.050   26.79    9.04   -1.56   0.000   0.200   0.000    0.00
   2.100   27.56    9.34   -1.31   0.000   0.200   0.000    0.00
   2.150   26.26    8.95    1.01   0.000   0.200   0.000    0.00
   2.200   25.62    9.20    2.35   0.000   0.200   0.000    0.00
   2.250   25.05    6.30    1.97   0.000   0.200   0.000    0.00
   2.300   25.20    4.66    1.09   0.000   0.200   0.000    0.00
   2.350   25.63    4.85   -0.47   0.000   0.200   0.000    0.00
   2.400   26.42    6.98    0.55   0.000   0.200   0.000    0.00
   2.450   26.92    6.89   -0.55   0.000   0.200   0.000    0.00
   2.500   27.39    5.44   -0.64   0.000   0.200   0.000    0.00
   2.550   27.32    5.87   -0.24   0.000   0.200   0.000    0.00
   2.600   26.70    5.86   -2.16   0.000   0.200   0.000    0.00
   2.650   25.69    5.74   -1.99   0.000   0.200   0.000    0.00
   2.700   26.37    4.86   -0.84   0.000   0.200   0.000    0.00
   2.750   27.41    4.34   -0.44   0.000   0.200   0.000    0.00
   2.800   27.21    3.31   -0.34   0.000   0.200   0.000    0.00
   2.850   27.27    0.21   -0.82   0.000   0.200   0.000    0.00
   2.900   26.39    1.10   -0.26   0.000   0.200   0.000    0.00
   2.950   26.35    0.38   -0.78   0.000   0.200   0.000    0.00
   3.000   26.66   -1.42   -0.65   0.000   0.200   0.000    0.00
   3.050   26.05   -0.39   -1.23   0.000   0.200   0.000    0.00
   3.100   27.30   -2.98   -1.30   0.000   0.200   0.000    0.00
   3.150   27.03   -1.68   -2.06   0.000   0.200   0.000    0.00
   3.200   27.31   -2.89   -1.08   0.000   0.200   0.000    0.00
   3.250   26.80   -1.51   -1.74   0.000   0.200   0.000    0.00
   3.300   26.04   -2.99   -0.64   0.000   0.200   0.000    0.00
   3.350   25.22   -2.04   -0.83   0.000   0.200   0.000    0.00
   3.400   25.85   -3.08   -0.97   0.000   0.200   0.000    0.00
   3.450   26.08   -3.71   -1.31   0.000   0.200   0.000    0.00
   3.500   25.40   -4.51   -1.65   0.000   0.200   0.000    0.00
   3.550   24.78   -2.89   -1.18   0.000   0.200   0.000    0.00
   3.600   24.67   -3.83   -0.82   0.000   0.200   0.000    0.00
   3.650   24.74   -3.07   -0.23   0.000   0.200   0.000    0.00
   3.700   24.39   -3.59   -0.74   0.000   0.200   0.000    0.00
   3.750   24.86   -2.81   -1.51   0.000   0.200   0.000    0.00
   3.800   25.61   -0.92   -1.98   0.000   0.200   0.000    0.00
   3.850   25.77    0.39   -2.29   0.000   0.200   0.000    0.00
   3.900   24.95   -1.39   -3.04   0.000   0.200   0.000    0.00
   3.950   24.33   -0.52   -3.48   0.000   0.200   0.000    0.00
   4.000   25.22   -0.73   -3.37   0.000   0.200   0.000    0.00
   4.050   26.20   -0.25   -2.50   0.000   0.200   0.000    0.00
   4.100   26.63    1.40   -3.07   0.000   0.200   0.000    0.00
   4.150   25.85    5.62   -1.19   0.000   0.200   0.000    0.00
   4.200   25.98    7.88   -0.30   0.000   0.200   0.000    0.00
   4.250   27.09    8.09   -0.75   0.000   0.200   0.000    0.00
   4.300   25.81    9.79   -0.67   0.000   0.200   0.000    0.00
   4.350   25.79   10.20   -0.52   0.000   0.200   0.000    0.00
   4.400   25.09   10.76    0.84   0.000   0.200   0.000    0.00
   4.450   24.86    9.45    1.47   0.000   0.200   0.000    0.00
   4.500   24.59    7.76    0.22   0.000   0.200   0.000    0.00
   4.550   24.16    8.19    0.46   0.000   0.200   0.000    0.00
   4.600   23.57    9.80    0.87   0.000   0.200   0.000    0.00
   4.650   22.82    7.20    0.87   0.000   0.200   0.000    0.00
   4.700   23.15    6.33   -0.39   0.000   0.200   0.000    0.00
   4.750   23.82    4.84   -0.08   0.000   0.200   0.000    0.00
   4.800   23.95    5.50    0.48   0.000   0.200   0.000    0.00
   4.850   24.44    6.99    1.32   0.000   0.200   0.000    0.00
   4.900   23.47    6.53    0.56   0.000   0.200   0.000    0.00
   4.950   22.72    8.11    1.52   0.000   0.200   0.000    0.00
   5.000   23.30    7.04    0.83   0.000   0.200   0.000    0.00
   5.050   22.79    5.68    0.65   0.000   0.200   0.000    0.00
   5.100   23.02    4.73    0.53   0.000   0.200   0.000    0.00
   5.150   22.85    4.40    0.03   0.000   0.200   0.000    0.00
   5.200   23.03    2.50    0.39   0.000   0.200   0.000    0.00
   5.250   23.65    3.57    1.29   0.000   0.200   0.000    0.00
   5.300   24.90    2.96    1.19   0.000   0.200   0.000    0.00
   5.350   24.72    2.32    0.90   0.000   0.200   0.000    0.00
   5.400   26.05    2.77    1.27   0.000   0.200   0.000    0.00
   5.450   25.86    3.86    1.32   0.000   0.200   0.000    0.00
   5.500   26.18   -1.16   -0.18   0.000   0.200   0.000    0.00
   5.550   26.36   -2.03   -0.57   0.000   0.200   0.000    0.00
   5.600   25.52    1.47   -0.21   0.000   0.200   0.000    0.00
   5.650   26.20    1.61    0.56   0.000   0.200   0.000    0.00
   5.700   26.00    0.91   -0.85   0.000   0.200   0.000    0.00
   5.750   24.78   -1.86   -2.11   0.000   0.200   0.000    0.00
   5.800   25.20   -2.57   -1.22   0.000   0.200   0.000    0.00
   5.850   25.59   -0.94   -1.30   0.000   0.200   0.000    0.00
   5.900   24.76   -2.03   -2.15   0.000   0.200   0.000    0.00
   5.950   25.53   -2.94   -1.35   0.000   0.200   0.000    0.00
   6.000   25.99   -2.21   -0.85   0.000   0.200   0.000    0.00
   6.050   25.85   -1.07   -1.40   0.000   0.200   0.000    0.00
   6.100   26.54   -0.99   -0.86   0.000   0.200   0.000    0.00
   6.150   26.92   -3.54   -0.25   0.000   0.200   0.000    0.00
   6.200   28.37   -4.36   -1.40   0.000   0.200   0.000    0.00
   6.250   27.16   -4.71   -2.19   0.000   0.200   0.000    0.00
   6.300   27.28   -5.71   -1.56   0.000   0.200   0.000    0.00
   6.350   28.63   -5.09   -2.16   0.000   0.200   0.000    0.00
   6.400   29.00   -4.45   -2.02   0.000   0.200   0.000    0.00
   6.450   28.18   -3.43   -2.55   0.000   0.200   0.000    0.00
   6.500   27.80   -5.54   -2.50   0.000   0.200   0.000    0.00
   6.550   27.46   -9.09   -3.11   0.000   0.200   0.000    0.00
   6.600   28.56   -8.60   -2.80   0.000   0.200   0.000    0.00
   6.650   28.86   -8.10   -4.31   0.000   0.200   0.000    0.00
   6.700   29.20   -7.40   -4.92   0.000   0.200   0.000    0.00
   6.750   29.73   -8.64   -4.03   0.000   0.200   0.000    0.00
   6.800   29.78   -6.10   -4.17   0.000   0.200   0.000    0.00
   6.850   30.23   -5.22   -4.71   0.000   0.200   0.000    0.00
   6.900   29.72   -3.97   -4.66   0.000   0.200   0.000    0.00
   6.950   29.94   -6.70   -4.51   0.000   0.200   0.000    0.00
   7.000   30.79   -7.85   -3.86   0.000   0.200   0.000    0.00
   7.050   31.13   -6.16   -1.99   0.000   0.200   0.000    0.00
   7.100   30.22   -4.78   -2.12   0.000   0.200   0.000    0.00
   7.150   31.34   -5.45   -1.64   0.000   0.200   0.000    0.00
   7.200   31.41   -5.68   -2.03   0.000   0.200   0.000    0.00
   7.250   32.65   -4.00   -2.26   0.000   0.200   0.000    0.00
   7.300   32.00   -2.69   -1.93   0.000   0.200   0.000    0.00
   7.350   32.42   -3.82   -4.03   0.000   0.200   0.000    0.00
   7.400   32.30   -2.46   -4.29   0.000   0.200   0.000    0.00
   7.450   32.01    0.75   -4.42   0.000   0.200   0.000    0.00
   7.500   32.73   -0.13   -3.20   0.000   0.200   0.000    0.00
   7.550   32.02   -1.22   -3.52   0.000   0.200   0.000    0.00
   7.600   31.75    0.35   -3.71   0.000   0.200   0.000    0.00
   7.650   30.80   -0.22   -3.51   0.000   0.200   0.000    0.00
   7.700   31.87   -1.10   -2.81   0.000   0.200   0.000    0.00
   7.750   31.60   -2.46   -2.61   0.000   0.200   0.000    0.00
   7.800   32.06   -2.76   -1.83   0.000   0.200   0.000    0.00
   7.850   33.11   -4.90   -2.29   0.000   0.200   0.000    0.00
   7.900   33.17   -2.49   -3.38   0.000   0.200   0.000    0.00
   7.950   33.87   -0.79   -3.40   0.000   0.200   0.000    0.00
   8.000   33.51   -2.50   -2.50   0.000   0.200   0.000    0.00
   8.050   33.61   -2.67   -1.95   0.000   0.200   0.000    0.00
   8.100   32.97   -2.83   -1.03   0.000   0.200   0.000    0.00
   8.150   33.49   -3.22   -1.08   0.000   0.200   0.000    0.00
   8.200   32.78   -3.75   -0.99   0.000   0.200   0.000    0.00
   8.250   33.17   -4.10   -2.16   0.000   0.200   0.000    0.00
   8.300   33.45   -3.07   -2.02   0.000   0.200   0.000    0.00
   8.350   32.21   -3.59   -1.60   0.000   0.200   0.000    0.00
   8.400   31.56   -1.85   -1.90   0.000   0.200   0.000    0.00
   8.450   32.60   -2.12   -2.33   0.000   0.200   0.000    0.00
   8.500   31.43   -4.58   -2.32   0.000   0.200   0.000    0.00
   8.550   30.38   -4.98   -2.53   0.000   0.200   0.000    0.00
   8.600   30.20   -4.53   -1.87   0.000   0.200   0.000    0.00
   8.650   30.89   -5.49   -1.63   0.000   0.200   0.000    0.00
   8.700   31.02   -3.94   -1.48   0.000   0.200   0.000    0.00
   8.750   30.97   -2.32   -1.19   0.000   0.200   0.000    0.00
   8.800   31.16   -3.30   -2.69   0.000   0.200   0.000    0.00
   8.850   30.97   -1.62   -3.43   0.000   0.200   0.000    0.00
   8.900   30.31   -1.64   -2.75   0.000   0.200   0.000    0.00
   8.950   29.22   -0.87   -3.35   0.000   0.200   0.000    0.00
   9.000   29.47   -1.49   -3.82   0.000   0.200   0.000    0.00
   9.050   29.28   -2.69   -3.51   0.000   0.200   0.000    0.00
   9.100   28.90   -2.41   -3.60   0.000   0.200   0.000    0.00
   9.150   29.29   -3.23   -2.64   0.000   0.200   0.000    0.00
   9.200   28.90   -2.53   -2.23   0.000   0.200   0.000    0.00
   9.250   28.49   -3.38   -1.50   0.000   0.200   0.000    0.00
   9.300   28.32   -3.49   -1.17   0.000   0.200   0.000    0.00
   9.350   27.30   -2.88   -0.81   0.000   0.200   0.000    0.00
   9.400   27.93   -1.39   -1.08   0.000   0.200   0.000    0.00
   9.450   28.10   -0.99   -0.96   0.000   0.200   0.000    0.00
   9.500   28.12   -3.83   -1.57   0.000   0.200   0.000    0.00
   9.550   28.20   -3.86   -1.36   0.000   0.200   0.000    0.00
   9.600   27.49   -4.32    0.00   0.000   0.200   0.000    0.00
   9.650   27.84   -2.83    1.15   0.000   0.200   0.000    0.00
   9.700   27.25   -1.49    0.43   0.000   0.200   0.000    0.00
   9.750   27.43   -2.80    0.97   0.000   0.200   0.000    0.00
   9.800   27.64   -2.05    1.61   0.000   0.200   0.000    0.00
   9.850   28.60   -0.99    1.81   0.000   0.200   0.000    0.00
   9.900   28.73   -2.57    1.88   0.000   0.200   0.000    0.00
   9.950   27.84   -4.43    2.36   0.000   0.200   0.000    0.00
  10.000   27.19   -2.96    3.03   0.000   0.200   0.000    0.00
  10.050   27.37   -4.32    2.91   0.000   0.200   0.000    0.00
  10.100   27.25   -5.54    3.52   0.000   0.200   0.000    0.00
  10.150   28.77   -2.43    2.68   0.000   0.200   0.000    0.00
  10.200   29.22   -5.28    2.77   0.000   0.200   0.000    0.00
  10.250   29.29   -3.13    2.10   0.000   0.200   0.000    0.00
  10.300   28.93   -4.28    0.92   0.000   0.200   0.000    0.00
  10.350   28.88   -4.94    0.41   0.000   0.200   0.000    0.00
  10.400   28.87   -3.12    0.60   0.000   0.200   0.000    0.00
  10.450   28.99   -3.93    0.60   0.000   0.200   0.000    0.00
  10.500   28.80   -5.48   -0.46   0.000   0.200   0.000    0.00
  10.550   28.20   -6.46   -0.55   0.000   0.200   0.000    0.00
  10.600   28.79   -6.12   -1.70   0.000   0.200   0.000    0.00
  10.650   28.76   -7.27   -0.98   0.000   0.200   0.000    0.00
  10.700   28.25   -6.16   -0.80   0.000   0.200   0.000    0.00
  10.750   28.14   -6.11   -1.71   0.000   0.200   0.000    0.00
  10.800   28.09   -3.49   -1.18   0.000   0.200   0.000    0.00
  10.850   26.72   -3.28   -0.48   0.000   0.200   0.000    0.00
  10.900   26.64   -3.62   -0.07   0.000   0.200   0.000    0.00
  10.950   27.19   -3.50   -0.57   0.000   0.200   0.000    0.00
  11.000   27.15   -3.25   -0.13   0.000   0.200   0.000    0.00
  11.050   26.17   -3.38   -1.17   0.000   0.200   0.000    0.00
  11.100   26.61   -3.43   -1.17   0.000   0.200   0.000    0.00
  11.150   25.61   -2.24   -0.62   0.000   0.200   0.000    0.00
  11.200   25.07   -3.47    0.13   0.000   0.200   0.000    0.00
  11.250   25.67   -4.53    1.10   0.000   0.200   0.000    0.00
  11.300   25.63   -6.83    1.88   0.000   0.200   0.000    0.00
  11.350   26.31   -5.76    2.97   0.000   0.200   0.000    0.00
  11.400   26.12   -6.15    1.86   0.000   0.200   0.000    0.00
  11.450   26.07   -5.59    1.93   0.000   0.200   0.000    0.00
  11.500   26.21   -4.48    2.27   0.000   0.200   0.000    0.00
  11.550   26.54   -3.99    1.60   0.000   0.200   0.000    0.00
  11.600   25.78   -2.66    2.23   0.000   0.200   0.000    0.00
  11.650   25.68   -2.00    1.55   0.000   0.200   0.000    0.00
  11.700   26.17   -1.06    0.94   0.000   0.200   0.000    0.00
  11.750   26.64   -1.36    1.27   0.000   0.200   0.000    0.00
  11.800   27.64   -1.50    2.26   0.000   0.200   0.000    0.00
  11.850   26.58   -0.31    1.77   0.000   0.200   0.000    0.00
  11.900   26.15    0.08    1.70   0.000   0.200   0.000    0.00
  11.950   27.00   -1.26    1.54   0.000   0.200   0.000    0.00
  12.000   26.10   -1.89    1.31   0.000   0.200   0.000    0.00
  12.050   26.91   -1.93    0.21   0.000   0.200   0.000    0.00
  12.100   26.98   -5.05    0.65   0.000   0.200   0.000    0.00
  12.150   27.76   -2.93   -0.27   0.000   0.200   0.000    0.00
  12.200   27.12   -2.81    0.08   0.000   0.200   0.000    0.00
  12.250   27.13    1.09    0.40   0.000   0.200   0.000    0.00
  12.300   27.03   -1.87   -0.41   0.000   0.200   0.000    0.00
  12.350   27.00   -2.01    0.69   0.000   0.200   0.000    0.00
  12.400   27.02   -2.88    0.63   0.000   0.200   0.000    0.00
  12.450   27.13   -3.34    1.51   0.000   0.200   0.000    0.00
  12.500   27.09   -4.27    1.02   0.000   0.200   0.000    0.00
  12.550   27.92   -2.61    1.50   0.000   0.200   0.000    0.00
  12.600   28.22   -3.28    0.94   0.000   0.200   0.000    0.00
  12.650   28.58   -2.93    0.92   0.000   0.200   0.000    0.00
  12.700   28.41   -2.94    0.76   0.000   0.200   0.000    0.00
  12.750   28.44   -3.91    1.77   0.000   0.200   0.000    0.00
  12.800   27.21   -3.45    1.31   0.000   0.200   0.000    0.00
  12.850   27.58   -2.53    1.45   0.000   0.200   0.000    0.00
  12.900   27.22   -2.28    0.98   0.000   0.200   0.000    0.00
  12.950   27.46   -0.65   -0.08   0.000   0.200   0.000    0.00
  13.000   27.08    0.93    1.34   0.000   0.200   0.000    0.00
  13.050   27.90   -1.79    0.84   0.000   0.200   0.000    0.00
  13.100   28.70   -4.59    0.40   0.000   0.200   0.000    0.00
  13.150   28.97   -3.00   -0.25   0.000   0.200   0.000    0.00
  13.200   28.75   -3.87   -0.03   0.000   0.200   0.000    0.00
  13.250   29.56   -4.68   -0.34   0.000   0.200   0.000    0.00
  13.300   29.83   -4.37    0.07   0.000   0.200   0.000    0.00
  13.350   29.64   -4.26    0.20   0.000   0.200   0.000    0.00
  13.400   29.63   -3.07   -1.85   0.000   0.200   0.000    0.00
  13.450   29.92   -3.54   -2.46   0.000   0.200   0.000    0.00
  13.500   28.80   -2.45   -1.91   0.000   0.200   0.000    0.00
  13.550   27.95   -4.14   -0.88   0.000   0.200   0.000    0.00
  13.600   28.31   -3.65   -0.02   0.000   0.200   0.000    0.00
  13.650   27.96   -6.19   -0.33   0.000   0.200   0.000    0.00
  13.700   27.89   -4.46   -0.76   0.000   0.200   0.000    0.00
  13.750   28.31   -4.69   -0.13   0.000   0.200   0.000    0.00
  13.800   28.68   -2.56    0.91   0.000   0.200   0.000    0.00
  13.850   28.97   -4.24   -0.58   0.000   0.200   0.000    0.00
  13.900   28.15   -6.95    0.91   0.000   0.200   0.000    0.00
  13.950   27.97   -6.01    1.97   0.000   0.200   0.000    0.00
  14.000   27.65   -8.36    0.93   0.000   0.200   0.000    0.00
  14.050   27.11   -6.93    0.16   0.000   0.200   0.000    0.00
  14.100   26.24   -4.24    0.08   0.000   0.200   0.000    0.00
  14.150   26.30   -4.83    0.04   0.000   0.200   0.000    0.00
  14.200   26.82   -1.05   -0.17   0.000   0.200   0.000    0.00
  14.250   26.72    0.03    0.52   0.000   0.200   0.000    0.00
  14.300   28.01    0.10    0.18   0.000   0.200   0.000    0.00
  14.350   28.08   -1.96    0.19   0.000   0.200   0.000    0.00
  14.400   27.57   -0.02   -0.57   0.000   0.200   0.000    0.00
  14.450   27.91   -2.47   -1.02   0.000   0.200   0.000    0.00
  14.500   29.04   -3.23   -0.40   0.000   0.200   0.000    0.00
  14.550   28.72   -3.06   -0.64   0.000   0.200   0.000    0.00
  14.600   28.00   -3.92   -0.23   0.000   0.200   0.000    0.00
  14.650   28.28   -4.42   -0.77   0.000   0.200   0.000    0.00
  14.700   28.81   -3.58   -0.69   0.000   0.200   0.000    0.00
  14.750   29.37   -4.57   -0.63   0.000   0.200   0.000    0.00
  14.800   28.62   -5.65   -0.97   0.000   0.200   0.000    0.00
  14.850   28.29   -3.61    0.55   0.000   0.200   0.000    0.00
  14.900   27.79   -3.72    1.23   0.000   0.200   0.000    0.00
  14.950   28.43   -3.65    0.13   0.000   0.200   0.000    0.00
  15.000   28.41   -3.84   -0.14   0.000   0.200   0.000    0.00
  15.050   28.48   -5.13    0.28   0.000   0.200   0.000    0.00
  15.100   29.27   -4.95   -1.24   0.000   0.200   0.000    0.00
  15.150   29.50   -1.36   -0.49   0.000   0.200   0.000    0.00
  15.200   29.75   -2.57    0.00   0.000   0.200   0.000    0.00
  15.250   29.67   -2.29   -0.79   0.000   0.200   0.000    0.00
  15.300   29.78   -4.37   -0.94   0.000   0.200   0.000    0.00
  15.350   29.90   -5.26   -0.90   0.000   0.200   0.000    0.00
  15.400   30.76   -4.18    0.09   0.000   0.200   0.000    0.00
  15.450   30.35   -5.87   -0.02   0.000   0.200   0.000    0.00
  15.500   29.26   -4.31   -1.38   0.000   0.200   0.000    0.00
  15.550   30.69   -5.47   -1.05   0.000   0.200   0.000    0.00
  15.600   31.29   -4.25    0.15   0.000   0.200   0.000    0.00
  15.650   30.76   -4.97   -0.33   0.000   0.200   0.000    0.00
  15.700   30.68   -4.07   -0.86   0.000   0.200   0.000    0.00
  15.750   29.98   -7.38   -0.30   0.000   0.200   0.000    0.00
  15.800   29.58   -6.07   -0.59   0.000   0.200   0.000    0.00
  15.850   29.60   -5.02   -1.47   0.000   0.200   0.000    0.00
  15.900   29.79   -6.19   -0.98   0.000   0.200   0.000    0.00
  15.950   29.97   -8.73   -1.20   0.000   0.200   0.000    0.00
  16.000   29.77   -8.45   -0.83   0.000   0.200   0.000    0.00
  16.050   29.46   -7.54   -0.59   0.000   0.200   0.000    0.00
  16.100   28.00   -5.42   -0.02   0.000   0.200   0.000    0.00
  16.150   28.21   -4.60   -0.60   0.000   0.200   0.000    0.00
  16.200   28.41   -4.38   -0.62   0.000   0.200   0.000    0.00
  16.250   29.48   -2.95   -1.90   0.000   0.200   0.000    0.00
  16.300   30.08   -3.52   -1.21   0.000   0.200   0.000    0.00
  16.350   29.08   -3.94   -1.28   0.000   0.200   0.000    0.00
  16.400   28.64   -5.16   -0.51   0.000   0.200   0.000    0.00
  16.450   28.67   -4.72    0.18   0.000   0.200   0.000    0.00
  16.500   28.85   -1.91   -0.15   0.000   0.200   0.000    0.00
  16.550   28.38   -1.95    1.43   0.000   0.200   0.000    0.00
  16.600   29.66   -4.43    1.45   0.000   0.200   0.000    0.00
  16.650   29.80   -6.24    0.73   0.000   0.200   0.000    0.00
  16.700   30.22   -5.88    1.35   0.000   0.200   0.000    0.00
  16.750   29.87   -5.19    1.34   0.000   0.200   0.000    0.00
  16.800   30.33   -3.51    1.78   0.000   0.200   0.000    0.00
  16.850   30.09   -3.06    0.55   0.000   0.200   0.000    0.00
  16.900   30.30   -4.26   -0.23   0.000   0.200   0.000    0.00
  16.950   30.53   -5.09   -0.22   0.000   0.200   0.000    0.00
  17.000   29.74   -5.18    1.17   0.000   0.200   0.000    0.00
  17.050   29.27   -3.90    1.17   0.000   0.200   0.000    0.00
  17.100   29.31   -4.38    0.42   0.000   0.200   0.000    0.00
  17.150   29.41   -4.63    1.35   0.000   0.200   0.000    0.00
  17.200   29.95   -4.64    1.10   0.000   0.200   0.000    0.00
  17.250   29.24   -3.37    1.58   0.000   0.200   0.000    0.00
  17.300   29.77   -2.38    1.11   0.000   0.200   0.000    0.00
  17.350   30.09   -2.63    1.25   0.000   0.200   0.000    0.00
  17.400   30.86   -2.52    0.88   0.000   0.200   0.000    0.00
  17.450   31.10   -2.26    0.18   0.000   0.200   0.000    0.00
  17.500   29.51   -2.80    0.09   0.000   0.200   0.000    0.00
  17.550   29.78   -1.94   -0.37   0.000   0.200   0.000    0.00
  17.600   29.69   -1.14   -0.01   0.000   0.200   0.000    0.00
  17.650   29.55   -0.95   -0.74   0.000   0.200   0.000    0.00
  17.700   28.66   -1.68   -2.45   0.000   0.200   0.000    0.00
  17.750   28.68   -1.79   -2.16   0.000   0.200   0.000    0.00
  17.800   28.84   -1.76   -1.66   0.000   0.200   0.000    0.00
  17.850   28.76   -4.66   -0.36   0.000   0.200   0.000    0.00
  17.900   28.87   -3.18    0.60   0.000   0.200   0.000    0.00
  17.950   30.18   -2.58    1.61   0.000   0.200   0.000    0.00
  18.000   29.23   -3.11    1.58   0.000   0.200   0.000    0.00
  18.050   28.46   -6.16    2.11   0.000   0.200   0.000    0.00
  18.100   28.52   -7.07    2.05   0.000   0.200   0.000    0.00
  18.150   28.03   -6.63    2.62   0.000   0.200   0.000    0.00
  18.200   28.69   -6.21    1.99   0.000   0.200   0.000    0.00
  18.250   30.59   -6.50    1.17   0.000   0.200   0.000    0.00
  18.300   30.62   -6.68    2.17   0.000   0.200   0.000    0.00
  18.350   30.99   -7.67    3.02   0.000   0.200   0.000    0.00
  18.400   30.73  -10.83    3.06   0.000   0.200   0.000    0.00
  18.450   30.78   -8.67    3.92   0.000   0.200   0.000    0.00
  18.500   31.69   -7.63    2.96   0.000   0.200   0.000    0.00
  18.550   30.58   -8.38    2.49   0.000   0.200   0.000    0.00
  18.600   31.52   -7.57    3.08   0.000   0.200   0.000    0.00
  18.650   31.63   -7.49    3.89   0.000   0.200   0.000    0.00
  18.700   31.24   -8.48    2.05   0.000   0.200   0.000    0.00
  18.750   31.71   -6.68    1.69   0.000   0.200   0.000    0.00
  18.800   30.91   -7.32    1.73   0.000   0.200   0.000    0.00
  18.850   30.32   -5.80    0.86   0.000   0.200   0.000    0.00
  18.900   29.29   -8.13    2.08   0.000   0.200   0.000    0.00
  18.950   28.76   -6.15    2.07   0.000   0.200   0.000    0.00
  19.000   28.79   -3.14    1.74   0.000   0.200   0.000    0.00
  19.050   29.51   -4.96    1.02   0.000   0.200   0.000    0.00
  19.100   29.59   -2.84    0.17   0.000   0.200   0.000    0.00
  19.150   29.95   -3.00    0.39   0.000   0.200   0.000    0.00
  19.200   30.66   -2.99    0.96   0.000   0.200   0.000    0.00
  19.250   31.31   -2.59    1.01   0.000   0.200   0.000    0.00
  19.300   30.13   -3.52    0.36   0.000   0.200   0.000    0.00
  19.350   30.12   -4.62   -0.79   0.000   0.200   0.000    0.00
  19.400   29.85   -3.50    0.72   0.000   0.200   0.000    0.00
  19.450   30.10   -4.35    1.06   0.000   0.200   0.000    0.00
  19.500   30.83   -3.95    1.53   0.000   0.200   0.000    0.00
  19.550   30.64   -2.65    2.37   0.000   0.200   0.000    0.00
  19.600   31.67   -3.25    1.83   0.000   0.200   0.000    0.00
  19.650   31.63   -3.79    1.82   0.000   0.200   0.000    0.00
  19.700   31.23   -1.05    1.97   0.000   0.200   0.000    0.00
  19.750   31.28   -1.37    2.06   0.000   0.200   0.000    0.00
  19.800   32.70   -3.02    1.21   0.000   0.200   0.000    0.00
  19.850   32.13   -2.89    1.38   0.000   0.200   0.000    0.00
  19.900   32.28   -4.00    0.27   0.000   0.200   0.000    0.00
  19.950   32.09   -3.61   -0.13   0.000   0.200   0.000    0.00
  20.000   32.60   -4.83    0.26   0.000   0.200   0.000    0.00
  20.050   31.78   -4.83   -0.48   0.000   0.200   0.000    0.00
  20.100   31.91   -3.21   -0.13   0.000   0.200   0.000    0.00
  20.150   31.38   -3.75    0.66   0.000   0.200   0.000    0.00
  20.200   31.32   -3.27    1.62   0.000   0.200   0.000    0.00
  20.250   31.66   -4.70   -0.11   0.000   0.200   0.000    0.00
  20.300   32.67   -3.63    0.57   0.000   0.200   0.000    0.00
  20.350   33.21   -4.31    1.31   0.000   0.200   0.000    0.00
  20.400   33.28   -4.28    1.33   0.000   0.200   0.000    0.00
  20.450   32.61   -2.50    2.71   0.000   0.200   0.000    0.00
  20.500   33.00   -2.13    2.36   0.000   0.200   0.000    0.00
  20.550   33.86   -4.43    1.86   0.000   0.200   0.000    0.00
  20.600   34.30   -5.67    2.49   0.000   0.200   0.000    0.00
  20.650   33.85   -6.31    2.23   0.000   0.200   0.000    0.00
  20.700   33.99   -5.40    1.92   0.000   0.200   0.000    0.00
  20.750   34.19   -4.19    2.69   0.000   0.200   0.000    0.00
  20.800   34.16   -5.18    2.29   0.000   0.200   0.000    0.00
  20.850   33.61   -4.60    1.39   0.000   0.200   0.000    0.00
  20.900   34.04   -4.30    1.12   0.000   0.200   0.000    0.00
  20.950   34.51   -4.88    0.60   0.000   0.200   0.000    0.00
  21.000   33.22   -3.44    0.66   0.000   0.200   0.000    0.00
  21.050   32.12   -3.57   -0.30   0.000   0.200   0.000    0.00
  21.100   31.64   -4.00   -0.14   0.000   0.200   0.000    0.00
  21.150   32.11   -5.27   -1.63   0.000   0.200   0.000    0.00
  21.200   31.59   -6.08   -1.08   0.000   0.200   0.000    0.00
  21.250   31.96   -6.37   -0.86   0.000   0.200   0.000    0.00
  21.300   32.66   -7.71   -0.69   0.000   0.200   0.000    0.00
  21.350   33.09   -8.30   -0.13   0.000   0.200   0.000    0.00
  21.400   32.58   -6.95    0.00   0.000   0.200   0.000    0.00
  21.450   32.45   -9.03    0.32   0.000   0.200   0.000    0.00
  21.500   31.81  -10.50    0.98   0.000   0.200   0.000    0.00
  21.550   31.60   -8.35    0.55   0.000   0.200   0.000    0.00
  21.600   32.37   -8.68    0.44   0.000   0.200   0.000    0.00
  21.650   33.25   -9.55    0.98   0.000   0.200   0.000    0.00
  21.700   33.28   -9.08    0.21   0.000   0.200   0.000    0.00
  21.750   32.46   -8.24   -0.06   0.000   0.200   0.000    0.00
  21.800   32.54   -8.02    0.26   0.000   0.200   0.000    0.00
  21.850   33.54   -7.05    0.60   0.000   0.200   0.000    0.00
  21.900   35.24   -6.75   -0.72   0.000   0.200   0.000    0.00
  21.950   34.45   -7.17   -0.99   0.000   0.200   0.000    0.00
  22.000   33.61   -6.85   -1.51   0.000   0.200   0.000    0.00
  22.050   32.56   -6.87   -1.59   0.000   0.200   0.000    0.00
  22.100   32.14   -6.86   -0.83   0.000   0.200   0.000    0.00
  22.150   31.33   -8.87   -0.70   0.000   0.200   0.000    0.00
  22.200   31.94   -8.13   -0.57   0.000   0.200   0.000    0.00
  22.250   30.67   -6.54   -1.49   0.000   0.200   0.000    0.00
  22.300   30.25   -7.66   -0.95   0.000   0.200   0.000    0.00
  22.350   30.46   -7.62   -0.30   0.000   0.200   0.000    0.00