! This hub-height wind-speed file was generated by TurbSim (v1.06.00, 21-Sep-2012) on 16-Jun-2018 at 18:31:13.
!
! The requested statistics for this data were:
!    Mean Total Wind Speed =    5.000 m/s
!    Turbulence Intensity  =   26.180%
!
!   Time  HorSpd  WndDir  VerSpd  HorShr  VerShr  LnVShr  GstSpd
!  (sec)   (m/s)   (deg)   (m/s)     (-)     (-)     (-)   (m/s)
   0.000    3.60   -1.74   -0.17   0.000   0.200   0.000    0.00
   0.050    3.58   -2.95   -0.43   0.000   0.200   0.000    0.00
   0.100    3.47    1.24   -0.77   0.000   0.200   0.000    0.00
   0.150    3.47    0.84   -0.57   0.000   0.200   0.000    0.00
   0.200    3.45   -1.03   -0.67   0.000   0.200   0.000    0.00
   0.250    3.78   -3.00   -0.36   0.000   0.200   0.000    0.00
   0.300    3.63   -2.71   -0.27   0.000   0.200   0.000    0.00
   0.350    3.69   -6.74   -0.40   0.000   0.200   0.000    0.00
   0.400    3.73   -3.64   -0.29   0.000   0.200   0.000    0.00
   0.450    3.76   -6.94   -0.25   0.000   0.200   0.000    0.00
   0.500    3.81   -8.63   -0.26   0.000   0.200   0.000    0.00
   0.550    3.86   -5.55   -0.44   0.000   0.200   0.000    0.00
   0.600    3.68   -7.50   -0.25   0.000   0.200   0.000    0.00
   0.650    3.54   -9.70   -0.23   0.000   0.200   0.000    0.00
   0.700    3.56   -7.06   -0.27   0.000   0.200   0.000    0.00
   0.750    3.12  -12.19   -0.26   0.000   0.200   0.000    0.00
   0.800    3.27   -9.97   -0.10   0.000   0.200   0.000    0.00
   0.850    3.30   -6.73   -0.04   0.000   0.200   0.000    0.00
   0.900    3.40   -5.01   -0.16   0.000   0.200   0.000    0.00
   0.950    3.21   -7.69   -0.50   0.000   0.200   0.000    0.00
   1.000    3.04    0.53   -0.43   0.000   0.200   0.000    0.00
   1.050    3.08   -1.27   -0.42   0.000   0.200   0.000    0.00
   1.100    3.05   -0.90   -0.21   0.000   0.200   0.000    0.00
   1.150    3.11    4.09   -0.18   0.000   0.200   0.000    0.00
   1.200    2.94    4.17   -0.27   0.000   0.200   0.000    0.00
   1.250    2.93   -0.04   -0.04   0.000   0.200   0.000    0.00
   1.300    3.01   -0.67   -0.35   0.000   0.200   0.000    0.00
   1.350    3.30    0.60   -0.41   0.000   0.200   0.000    0.00
   1.400    3.19    1.47   -0.14   0.000   0.200   0.000    0.00
   1.450    3.30    3.37   -0.16   0.000   0.200   0.000    0.00
   1.500    3.24    7.74    0.02   0.000   0.200   0.000    0.00
   1.550    3.37    5.96    0.01   0.000   0.200   0.000    0.00
   1.600    3.51    6.52   -0.07   0.000   0.200   0.000    0.00
   1.650    3.34    1.89    0.13   0.000   0.200   0.000    0.00
   1.700    3.25    3.21    0.02   0.000   0.200   0.000    0.00
   1.750    3.60    5.49   -0.10   0.000   0.200   0.000    0.00
   1.800    3.64    7.23   -0.48   0.000   0.200   0.000    0.00
   1.850    3.77    7.34   -0.56   0.000   0.200   0.000    0.00
   1.900    3.93    7.36   -0.13   0.000   0.200   0.000    0.00
   1.950    3.91   11.93   -0.20   0.000   0.200   0.000    0.00
   2.000    4.14   14.66   -0.11   0.000   0.200   0.000    0.00
   2.050    4.07   13.04    0.09   0.000   0.200   0.000    0.00
   2.100    4.16   14.73    0.12   0.000   0.200   0.000    0.00
   2.150    4.41   14.49    0.13   0.000   0.200   0.000    0.00
   2.200    4.15   14.01    0.05   0.000   0.200   0.000    0.00
   2.250    4.09   13.47   -0.11   0.000   0.200   0.000    0.00
   2.300    4.01   16.80   -0.48   0.000   0.200   0.000    0.00
   2.350    4.07   20.66   -0.77   0.000   0.200   0.000    0.00
   2.400    4.22   20.24   -0.71   0.000   0.200   0.000    0.00
   2.450    4.04   16.05   -0.83   0.000   0.200   0.000    0.00
   2.500    4.09   12.86   -0.75   0.000   0.200   0.000    0.00
   2.550    3.89   15.74   -0.83   0.000   0.200   0.000    0.00
   2.600    4.10   11.50   -0.70   0.000   0.200   0.000    0.00
   2.650    4.00   12.62   -0.45   0.000   0.200   0.000    0.00
   2.700    3.97   14.48   -0.58   0.000   0.200   0.000    0.00
   2.750    3.89   12.34   -0.69   0.000   0.200   0.000    0.00
   2.800    3.89   15.18   -0.99   0.000   0.200   0.000    0.00
   2.850    3.87   13.43   -0.79   0.000   0.200   0.000    0.00
   2.900    3.79   15.25   -0.81   0.000   0.200   0.000    0.00
   2.950    4.32   12.15   -1.05   0.000   0.200   0.000    0.00
   3.000    4.19   10.76   -0.85   0.000   0.200   0.000    0.00
   3.050    4.04   12.61   -0.94   0.000   0.200   0.000    0.00
   3.100    4.18   11.73   -0.96   0.000   0.200   0.000    0.00
   3.150    4.35   13.58   -1.04   0.000   0.200   0.000    0.00
   3.200    4.24   16.27   -0.96   0.000   0.200   0.000    0.00
   3.250    4.47   19.57   -1.01   0.000   0.200   0.000    0.00
   3.300    4.28   19.81   -0.95   0.000   0.200   0.000    0.00
   3.350    4.01   22.93   -1.06   0.000   0.200   0.000    0.00
   3.400    4.11   19.83   -0.62   0.000   0.200   0.000    0.00
   3.450    4.11   18.61   -0.19   0.000   0.200   0.000    0.00
   3.500    4.13   14.08   -0.34   0.000   0.200   0.000    0.00
   3.550    4.05   14.76   -0.22   0.000   0.200   0.000    0.00
   3.600    4.22   11.75    0.07   0.000   0.200   0.000    0.00
   3.650    4.15   11.17    0.20   0.000   0.200   0.000    0.00
   3.700    4.27   11.09    0.32   0.000   0.200   0.000    0.00
   3.750    4.07    9.28    0.18   0.000   0.200   0.000    0.00
   3.800    4.10    7.10    0.19   0.000   0.200   0.000    0.00
   3.850    4.10    7.40    0.52   0.000   0.200   0.000    0.00
   3.900    4.15    7.88    0.31   0.000   0.200   0.000    0.00
   3.950    4.16   10.60    0.50   0.000   0.200   0.000    0.00
   4.000    4.29   13.54    0.35   0.000   0.200   0.000    0.00
   4.050    4.27   16.98    0.11   0.000   0.200   0.000    0.00
   4.100    4.44   14.17    0.03   0.000   0.200   0.000    0.00
   4.150    4.52   13.80    0.17   0.000   0.200   0.000    0.00
   4.200    4.26   15.04    0.34   0.000   0.200   0.000    0.00
   4.250    4.36   14.03    0.25   0.000   0.200   0.000    0.00
   4.300    4.30   15.27    0.21   0.000   0.200   0.000    0.00
   4.350    4.26   17.77    0.22   0.000   0.200   0.000    0.00
   4.400    4.26   18.52    0.15   0.000   0.200   0.000    0.00
   4.450    4.53   19.38    0.11   0.000   0.200   0.000    0.00
   4.500    4.61   17.93   -0.21   0.000   0.200   0.000    0.00
   4.550    4.70   20.21   -0.27   0.000   0.200   0.000    0.00
   4.600    4.70   18.24   -0.56   0.000   0.200   0.000    0.00
   4.650    4.84   17.82   -0.69   0.000   0.200   0.000    0.00
   4.700    4.91   16.89   -0.94   0.000   0.200   0.000    0.00
   4.750    5.10   14.53   -1.18   0.000   0.200   0.000    0.00
   4.800    5.14   15.93   -1.25   0.000   0.200   0.000    0.00
   4.850    5.27   12.96   -1.11   0.000   0.200   0.000    0.00
   4.900    5.41    8.84   -1.13   0.000   0.200   0.000    0.00
   4.950    5.44    9.62   -1.16   0.000   0.200   0.000    0.00
   5.000    5.22    9.41   -1.17   0.000   0.200   0.000    0.00
   5.050    5.31    7.94   -1.18   0.000   0.200   0.000    0.00
   5.100    5.50    7.12   -1.39   0.000   0.200   0.000    0.00
   5.150    5.55    8.43   -1.37   0.000   0.200   0.000    0.00
   5.200    5.24    7.16   -0.90   0.000   0.200   0.000    0.00
   5.250    5.45    6.03   -0.88   0.000   0.200   0.000    0.00
   5.300    5.32    6.72   -0.66   0.000   0.200   0.000    0.00
   5.350    5.27    5.37   -0.69   0.000   0.200   0.000    0.00
   5.400    5.26    8.50   -0.79   0.000   0.200   0.000    0.00
   5.450    5.46    8.83   -0.58   0.000   0.200   0.000    0.00
   5.500    5.63    9.04   -0.34   0.000   0.200   0.000    0.00
   5.550    5.58    4.46   -0.57   0.000   0.200   0.000    0.00
   5.600    5.54    2.95   -0.45   0.000   0.200   0.000    0.00
   5.650    5.38    1.69   -0.44   0.000   0.200   0.000    0.00
   5.700    5.39    2.37   -0.38   0.000   0.200   0.000    0.00
   5.750    5.50    3.62   -0.40   0.000   0.200   0.000    0.00
   5.800    5.53    3.68   -0.57   0.000   0.200   0.000    0.00
   5.850    5.51    1.32   -0.73   0.000   0.200   0.000    0.00
   5.900    5.40   -1.54   -0.62   0.000   0.200   0.000    0.00
   5.950    5.26   -0.60   -0.76   0.000   0.200   0.000    0.00
   6.000    5.30   -3.95   -0.75   0.000   0.200   0.000    0.00
   6.050    5.26   -6.19   -0.78   0.000   0.200   0.000    0.00
   6.100    4.94   -6.74   -0.59   0.000   0.200   0.000    0.00
   6.150    4.98   -2.23   -0.67   0.000   0.200   0.000    0.00
   6.200    4.98   -2.19   -0.54   0.000   0.200   0.000    0.00
   6.250    5.27    1.68   -0.67   0.000   0.200   0.000    0.00
   6.300    5.31    1.09   -0.60   0.000   0.200   0.000    0.00
   6.350    5.20   -1.56   -0.18   0.000   0.200   0.000    0.00
   6.400    5.15   -1.11    0.15   0.000   0.200   0.000    0.00
   6.450    5.13    0.66   -0.13   0.000   0.200   0.000    0.00
   6.500    5.19    1.58   -0.05   0.000   0.200   0.000    0.00
   6.550    4.91    4.81    0.04   0.000   0.200   0.000    0.00
   6.600    5.08    6.46   -0.20   0.000   0.200   0.000    0.00
   6.650    5.32    5.56   -0.33   0.000   0.200   0.000    0.00
   6.700    5.24    6.75   -0.21   0.000   0.200   0.000    0.00
   6.750    5.35    7.37   -0.24   0.000   0.200   0.000    0.00
   6.800    5.49    5.93   -0.17   0.000   0.200   0.000    0.00
   6.850    5.44    7.38   -0.06   0.000   0.200   0.000    0.00
   6.900    5.29    5.60    0.09   0.000   0.200   0.000    0.00
   6.950    5.25    4.04    0.13   0.000   0.200   0.000    0.00
   7.000    5.05    4.11    0.53   0.000   0.200   0.000    0.00
   7.050    5.14    2.15    0.41   0.000   0.200   0.000    0.00
   7.100    5.35    1.52    0.21   0.000   0.200   0.000    0.00
   7.150    4.95    3.47    0.15   0.000   0.200   0.000    0.00
   7.200    5.24    0.18    0.24   0.000   0.200   0.000    0.00
   7.250    5.25    0.36    0.05   0.000   0.200   0.000    0.00
   7.300    5.17   -0.12    0.16   0.000   0.200   0.000    0.00
   7.350    5.21    2.19    0.37   0.000   0.200   0.000    0.00
   7.400    5.21   -0.62    0.28   0.000   0.200   0.000    0.00
   7.450    5.36   -0.88    0.31   0.000   0.200   0.000    0.00
   7.500    5.65    1.70    0.15   0.000   0.200   0.000    0.00
   7.550    5.49   -1.29    0.20   0.000   0.200   0.000    0.00
   7.600    5.48   -4.49    0.10   0.000   0.200   0.000    0.00
   7.650    5.62   -3.09    0.18   0.000   0.200   0.000    0.00
   7.700    5.77   -4.40    0.01   0.000   0.200   0.000    0.00
   7.750    5.47   -1.97    0.14   0.000   0.200   0.000    0.00
   7.800    5.40   -2.21    0.20   0.000   0.200   0.000    0.00
   7.850    5.42   -2.85    0.13   0.000   0.200   0.000    0.00
   7.900    5.38   -4.60    0.02   0.000   0.200   0.000    0.00
   7.950    5.40   -4.19    0.17   0.000   0.200   0.000    0.00
   8.000    5.51   -4.66    0.18   0.000   0.200   0.000    0.00
   8.050    5.36   -3.32    0.59   0.000   0.200   0.000    0.00
   8.100    5.29   -2.96    0.86   0.000   0.200   0.000    0.00
   8.150    5.44   -0.80    0.82   0.000   0.200   0.000    0.00
   8.200    5.59   -1.99    0.67   0.000   0.200   0.000    0.00
   8.250    5.74    1.16    0.78   0.000   0.200   0.000    0.00
   8.300    5.78    3.36    0.55   0.000   0.200   0.000    0.00
   8.350    5.81    2.22    0.50   0.000   0.200   0.000    0.00
   8.400    5.83    1.66    0.34   0.000   0.200   0.000    0.00
   8.450    5.77   -0.16    0.66   0.000   0.200   0.000    0.00
   8.500    5.67   -0.76    0.48   0.000   0.200   0.000    0.00
   8.550    5.46   -1.36    0.36   0.000   0.200   0.000    0.00
   8.600    5.54   -2.90    0.45   0.000   0.200   0.000    0.00
   8.650    5.32   -0.49    0.56   0.000   0.200   0.000    0.00
   8.700    5.33    0.22    0.47   0.000   0.200   0.000    0.00
   8.750    5.52   -0.71    0.31   0.000   0.200   0.000    0.00
   8.800    5.82    0.04    0.38   0.000   0.200   0.000    0.00
   8.850    5.97    0.07    0.47   0.000   0.200   0.000    0.00
   8.900    6.03    0.01    0.33   0.000   0.200   0.000    0.00
   8.950    5.94   -1.12    0.47   0.000   0.200   0.000    0.00
   9.000    6.15   -3.49    0.59   0.000   0.200   0.000    0.00
   9.050    5.91   -2.69    0.58   0.000   0.200   0.000    0.00
   9.100    5.82   -1.56    0.47   0.000   0.200   0.000    0.00
   9.150    5.81   -0.13    0.25   0.000   0.200   0.000    0.00
   9.200    5.99   -2.08    0.28   0.000   0.200   0.000    0.00
   9.250    6.14   -3.66    0.10   0.000   0.200   0.000    0.00
   9.300    5.68   -4.88    0.05   0.000   0.200   0.000    0.00
   9.350    5.72   -4.09    0.28   0.000   0.200   0.000    0.00
   9.400    5.76   -4.88    0.21   0.000   0.200   0.000    0.00
   9.450    5.80   -3.92    0.13   0.000   0.200   0.000    0.00
   9.500    5.85   -5.24    0.13   0.000   0.200   0.000    0.00
   9.550    5.67   -5.28   -0.34   0.000   0.200   0.000    0.00
   9.600    5.60   -6.47   -0.15   0.000   0.200   0.000    0.00
   9.650    5.70   -4.21   -0.14   0.000   0.200   0.000    0.00
   9.700    5.44   -1.63    0.10   0.000   0.200   0.000    0.00
   9.750    5.21   -3.11    0.15   0.000   0.200   0.000    0.00
   9.800    5.16   -5.24    0.32   0.000   0.200   0.000    0.00
   9.850    5.29   -4.07   -0.05   0.000   0.200   0.000    0.00
   9.900    5.51   -4.59   -0.27   0.000   0.200   0.000    0.00
   9.950    5.55   -4.53   -0.35   0.000   0.200   0.000    0.00
  10.000    5.50   -6.85   -0.40   0.000   0.200   0.000    0.00
  10.050    5.04   -8.34   -0.11   0.000   0.200   0.000    0.00
  10.100    5.03  -10.60    0.06   0.000   0.200   0.000    0.00
  10.150    4.95  -12.77   -0.17   0.000   0.200   0.000    0.00
  10.200    5.17  -13.05   -0.11   0.000   0.200   0.000    0.00
  10.250    5.23  -10.81   -0.37   0.000   0.200   0.000    0.00
  10.300    5.41  -11.01   -0.08   0.000   0.200   0.000    0.00
  10.350    5.40  -10.21   -0.06   0.000   0.200   0.000    0.00
  10.400    5.59  -10.15    0.01   0.000   0.200   0.000    0.00
  10.450    5.76   -9.64   -0.01   0.000   0.200   0.000    0.00
  10.500    5.66  -11.34   -0.21   0.000   0.200   0.000    0.00
  10.550    5.45  -17.94   -0.22   0.000   0.200   0.000    0.00
  10.600    5.26  -19.38   -0.14   0.000   0.200   0.000    0.00
  10.650    5.30  -18.06   -0.42   0.000   0.200   0.000    0.00
  10.700    5.46  -20.41   -0.59   0.000   0.200   0.000    0.00
  10.750    5.56  -21.64   -0.60   0.000   0.200   0.000    0.00
  10.800    5.68  -20.21   -0.77   0.000   0.200   0.000    0.00
  10.850    5.43  -17.97   -0.56   0.000   0.200   0.000    0.00
  10.900    5.43  -17.98   -0.67   0.000   0.200   0.000    0.00
  10.950    5.70  -20.71   -0.41   0.000   0.200   0.000    0.00
  11.000    5.75  -19.90   -0.26   0.000   0.200   0.000    0.00
  11.050    5.64  -20.59   -0.02   0.000   0.200   0.000    0.00
  11.100    5.90  -18.97    0.00   0.000   0.200   0.000    0.00
  11.150    5.45  -15.91   -0.06   0.000   0.200   0.000    0.00
  11.200    5.63  -18.70    0.14   0.000   0.200   0.000    0.00
  11.250    5.60  -16.99   -0.20   0.000   0.200   0.000    0.00
  11.300    5.56  -18.33   -0.11   0.000   0.200   0.000    0.00
  11.350    5.46  -16.68    0.10   0.000   0.200   0.000    0.00
  11.400    5.16  -16.83    0.05   0.000   0.200   0.000    0.00
  11.450    5.06  -17.74    0.15   0.000   0.200   0.000    0.00
  11.500    5.05  -16.68    0.14   0.000   0.200   0.000    0.00
  11.550    5.01  -12.48   -0.23   0.000   0.200   0.000    0.00
  11.600    5.01  -13.21   -0.37   0.000   0.200   0.000    0.00
  11.650    5.07  -12.29   -0.78   0.000   0.200   0.000    0.00
  11.700    5.22  -11.06   -0.67   0.000   0.200   0.000    0.00
  11.750    5.14  -10.98   -0.65   0.000   0.200   0.000    0.00
  11.800    5.09  -11.55   -0.68   0.000   0.200   0.000    0.00
  11.850    5.22  -12.79   -0.79   0.000   0.200   0.000    0.00
  11.900    5.19  -11.96   -0.68   0.000   0.200   0.000    0.00
  11.950    5.06  -14.46   -0.77   0.000   0.200   0.000    0.00
  12.000    5.17  -15.59   -1.01   0.000   0.200   0.000    0.00
  12.050    5.11  -15.51   -1.15   0.000   0.200   0.000    0.00
  12.100    5.03  -17.02   -1.12   0.000   0.200   0.000    0.00
  12.150    5.23  -14.90   -1.00   0.000   0.200   0.000    0.00
  12.200    5.12  -13.39   -0.79   0.000   0.200   0.000    0.00
  12.250    5.03  -11.93   -0.90   0.000   0.200   0.000    0.00
  12.300    4.82  -13.42   -1.13   0.000   0.200   0.000    0.00
  12.350    4.92  -10.75   -1.05   0.000   0.200   0.000    0.00
  12.400    5.09  -14.48   -0.88   0.000   0.200   0.000    0.00
  12.450    4.78  -15.95   -0.80   0.000   0.200   0.000    0.00
  12.500    5.02  -16.50   -0.73   0.000   0.200   0.000    0.00
  12.550    5.15  -15.24   -0.60   0.000   0.200   0.000    0.00
  12.600    5.14  -13.84   -0.14   0.000   0.200   0.000    0.00
  12.650    4.95  -11.54   -0.22   0.000   0.200   0.000    0.00
  12.700    4.95  -11.52   -0.30   0.000   0.200   0.000    0.00
  12.750    5.13  -10.40   -0.24   0.000   0.200   0.000    0.00
  12.800    5.10  -11.28   -0.12   0.000   0.200   0.000    0.00
  12.850    5.15  -13.41   -0.10   0.000   0.200   0.000    0.00
  12.900    4.95  -10.79   -0.07   0.000   0.200   0.000    0.00
  12.950    5.19  -13.05   -0.12   0.000   0.200   0.000    0.00
  13.000    5.35  -15.50    0.08   0.000   0.200   0.000    0.00
  13.050    4.97  -16.76    0.14   0.000   0.200   0.000    0.00
  13.100    5.07  -13.55    0.28   0.000   0.200   0.000    0.00
  13.150    4.83   -9.67    0.28   0.000   0.200   0.000    0.00
  13.200    4.74   -8.85    0.30   0.000   0.200   0.000    0.00
  13.250    4.43  -10.39    0.34   0.000   0.200   0.000    0.00
  13.300    4.64   -9.70   -0.04   0.000   0.200   0.000    0.00
  13.350    4.56  -10.73    0.12   0.000   0.200   0.000    0.00
  13.400    4.58  -12.66   -0.04   0.000   0.200   0.000    0.00
  13.450    4.67  -14.71   -0.08   0.000   0.200   0.000    0.00
  13.500    4.85  -14.20   -0.14   0.000   0.200   0.000    0.00
  13.550    4.84  -15.73   -0.25   0.000   0.200   0.000    0.00
  13.600    5.18  -12.78   -0.39   0.000   0.200   0.000    0.00
  13.650    5.14  -13.83   -0.15   0.000   0.200   0.000    0.00
  13.700    4.86  -12.15    0.05   0.000   0.200   0.000    0.00
  13.750    4.92  -11.34    0.14   0.000   0.200   0.000    0.00
  13.800    4.68   -9.58    0.19   0.000   0.200   0.000    0.00
  13.850    4.54  -10.78    0.27   0.000   0.200   0.000    0.00
  13.900    4.64  -10.02   -0.12   0.000   0.200   0.000    0.00
  13.950    4.75   -8.32    0.07   0.000   0.200   0.000    0.00
  14.000    4.91   -3.67    0.05   0.000   0.200   0.000    0.00
  14.050    4.44    1.51    0.31   0.000   0.200   0.000    0.00
  14.100    4.50    1.37   -0.06   0.000   0.200   0.000    0.00
  14.150    4.53   -0.33    0.10   0.000   0.200   0.000    0.00
  14.200    4.66   -3.58    0.25   0.000   0.200   0.000    0.00
  14.250    4.66   -4.85   -0.07   0.000   0.200   0.000    0.00
  14.300    4.76   -4.95   -0.35   0.000   0.200   0.000    0.00
  14.350    4.79   -2.93   -0.33   0.000   0.200   0.000    0.00
  14.400    4.63   -0.22   -0.18   0.000   0.200   0.000    0.00
  14.450    4.88    2.50    0.06   0.000   0.200   0.000    0.00
  14.500    4.76    1.41   -0.07   0.000   0.200   0.000    0.00
  14.550    4.71    1.36   -0.11   0.000   0.200   0.000    0.00
  14.600    4.47    0.08   -0.18   0.000   0.200   0.000    0.00
  14.650    4.46   -2.91    0.09   0.000   0.200   0.000    0.00
  14.700    4.80   -2.74    0.25   0.000   0.200   0.000    0.00
  14.750    4.52   -3.20    0.13   0.000   0.200   0.000    0.00
  14.800    4.25   -1.15    0.15   0.000   0.200   0.000    0.00
  14.850    4.02    2.98    0.15   0.000   0.200   0.000    0.00
  14.900    3.99    4.09    0.16   0.000   0.200   0.000    0.00
  14.950    3.84    4.20   -0.07   0.000   0.200   0.000    0.00
  15.000    3.82    3.84   -0.12   0.000   0.200   0.000    0.00
  15.050    3.78    1.39   -0.10   0.000   0.200   0.000    0.00
  15.100    4.07   -2.05    0.05   0.000   0.200   0.000    0.00
  15.150    4.17   -1.66   -0.13   0.000   0.200   0.000    0.00
  15.200    4.09   -1.34    0.22   0.000   0.200   0.000    0.00
  15.250    3.93    1.19    0.63   0.000   0.200   0.000    0.00
  15.300    3.99   -1.35    0.50   0.000   0.200   0.000    0.00
  15.350    4.17   -2.06    0.45   0.000   0.200   0.000    0.00
  15.400    3.94    0.26    0.47   0.000   0.200   0.000    0.00
  15.450    3.99    0.88    0.40   0.000   0.200   0.000    0.00
  15.500    4.19    2.52    0.27   0.000   0.200   0.000    0.00
  15.550    4.11    4.11    0.16   0.000   0.200   0.000    0.00
  15.600    4.15    3.89    0.01   0.000   0.200   0.000    0.00
  15.650    4.15    2.00    0.10   0.000   0.200   0.000    0.00
  15.700    4.27    1.86    0.29   0.000   0.200   0.000    0.00
  15.750    4.63    5.44    0.57   0.000   0.200   0.000    0.00
  15.800    4.66    5.21    0.34   0.000   0.200   0.000    0.00
  15.850    4.85    3.38    0.09   0.000   0.200   0.000    0.00
  15.900    4.71    1.86    0.05   0.000   0.200   0.000    0.00
  15.950    4.56    0.55    0.04   0.000   0.200   0.000    0.00
  16.000    4.45    3.81   -0.04   0.000   0.200   0.000    0.00
  16.050    4.21    1.57    0.11   0.000   0.200   0.000    0.00
  16.100    4.39    1.04    0.26   0.000   0.200   0.000    0.00
  16.150    4.30    2.88    0.41   0.000   0.200   0.000    0.00
  16.200    4.04    3.80    0.09   0.000   0.200   0.000    0.00
  16.250    4.05   -0.82   -0.09   0.000   0.200   0.000    0.00
  16.300    4.11    0.00    0.17   0.000   0.200   0.000    0.00
  16.350    4.01   -0.01    0.09   0.000   0.200   0.000    0.00
  16.400    3.91    0.32   -0.08   0.000   0.200   0.000    0.00
  16.450    3.96   -0.05   -0.28   0.000   0.200   0.000    0.00
  16.500    3.90    4.95   -0.19   0.000   0.200   0.000    0.00
  16.550    4.12    2.02   -0.41   0.000   0.200   0.000    0.00
  16.600    4.25   -1.21   -0.36   0.000   0.200   0.000    0.00
  16.650    4.38    1.42    0.03   0.000   0.200   0.000    0.00
  16.700    4.31    2.60   -0.33   0.000   0.200   0.000    0.00
  16.750    4.32    5.77   -0.15   0.000   0.200   0.000    0.00
  16.800    4.32    2.24   -0.18   0.000   0.200   0.000    0.00
  16.850    4.46    3.97   -0.20   0.000   0.200   0.000    0.00
  16.900    4.45    2.79    0.09   0.000   0.200   0.000    0.00
  16.950    4.48    6.86    0.48   0.000   0.200   0.000    0.00
  17.000    4.56    6.56    0.26   0.000   0.200   0.000    0.00
  17.050    4.78    5.73    0.11   0.000   0.200   0.000    0.00
  17.100    4.89    1.58    0.03   0.000   0.200   0.000    0.00
  17.150    4.89    1.28   -0.14   0.000   0.200   0.000    0.00
  17.200    4.80    4.36   -0.13   0.000   0.200   0.000    0.00
  17.250    4.86    3.47   -0.08   0.000   0.200   0.000    0.00
  17.300    4.80    6.60    0.10   0.000   0.200   0.000    0.00
  17.350    4.49    4.05    0.24   0.000   0.200   0.000    0.00
  17.400    4.57    1.10   -0.12   0.000   0.200   0.000    0.00
  17.450    4.64   -1.65   -0.14   0.000   0.200   0.000    0.00
  17.500    4.82   -4.18    0.06   0.000   0.200   0.000    0.00
  17.550    4.79   -2.45   -0.09   0.000   0.200   0.000    0.00
  17.600    5.03   -1.10   -0.10   0.000   0.200   0.000    0.00
  17.650    4.96   -1.31   -0.40   0.000   0.200   0.000    0.00
  17.700    4.98   -0.57   -0.97   0.000   0.200   0.000    0.00
  17.750    5.08   -6.02   -0.96   0.000   0.200   0.000    0.00
  17.800    4.79   -4.44   -0.79   0.000   0.200   0.000    0.00
  17.850    4.91   -4.00   -1.08   0.000   0.200   0.000    0.00
  17.900    4.76   -3.85   -1.13   0.000   0.200   0.000    0.00
  17.950    4.87   -2.07   -0.96   0.000   0.200   0.000    0.00
  18.000    4.66   -2.76   -0.74   0.000   0.200   0.000    0.00
  18.050    4.67   -2.21   -0.80   0.000   0.200   0.000    0.00
  18.100    4.77   -5.12   -0.61   0.000   0.200   0.000    0.00
  18.150    4.95   -5.71   -0.72   0.000   0.200   0.000    0.00
  18.200    5.10   -4.90   -0.57   0.000   0.200   0.000    0.00
  18.250    4.95   -7.08   -0.49   0.000   0.200   0.000    0.00
  18.300    4.96   -9.24   -0.28   0.000   0.200   0.000    0.00
  18.350    5.10   -7.61   -0.51   0.000   0.200   0.000    0.00
  18.400    5.00   -2.98   -0.77   0.000   0.200   0.000    0.00
  18.450    4.67   -2.03   -0.93   0.000   0.200   0.000    0.00
  18.500    4.70   -2.59   -0.93   0.000   0.200   0.000    0.00
  18.550    4.79   -5.58   -0.64   0.000   0.200   0.000    0.00
  18.600    4.80   -5.53   -0.76   0.000   0.200   0.000    0.00
  18.650    4.69   -2.18   -1.09   0.000   0.200   0.000    0.00
  18.700    4.67   -4.61   -1.04   0.000   0.200   0.000    0.00
  18.750    4.43   -8.62   -0.98   0.000   0.200   0.000    0.00
  18.800    4.19   -5.89   -1.07   0.000   0.200   0.000    0.00
  18.850    4.26   -3.71   -1.12   0.000   0.200   0.000    0.00
  18.900    4.19   -3.95   -1.54   0.000   0.200   0.000    0.00
  18.950    4.18   -4.99   -1.31   0.000   0.200   0.000    0.00
  19.000    4.16   -6.29   -1.07   0.000   0.200   0.000    0.00
  19.050    3.99   -5.04   -0.97   0.000   0.200   0.000    0.00
  19.100    4.44   -3.64   -0.99   0.000   0.200   0.000    0.00
  19.150    4.55   -4.25   -0.99   0.000   0.200   0.000    0.00
  19.200    4.59   -8.01   -0.62   0.000   0.200   0.000    0.00
  19.250    4.48   -5.81   -0.89   0.000   0.200   0.000    0.00
  19.300    4.19   -5.13   -1.20   0.000   0.200   0.000    0.00
  19.350    3.99   -2.17   -1.41   0.000   0.200   0.000    0.00
  19.400    4.08   -5.49   -1.38   0.000   0.200   0.000    0.00
  19.450    4.06   -1.61   -1.69   0.000   0.200   0.000    0.00
  19.500    4.15    0.12   -1.56   0.000   0.200   0.000    0.00
  19.550    4.39    2.27   -1.30   0.000   0.200   0.000    0.00
  19.600    4.08    2.65   -1.51   0.000   0.200   0.000    0.00
  19.650    4.03    1.63   -1.67   0.000   0.200   0.000    0.00
  19.700    3.99    1.17   -1.35   0.000   0.200   0.000    0.00
  19.750    3.83    2.11   -1.19   0.000   0.200   0.000    0.00
  19.800    4.01   -2.47   -0.97   0.000   0.200   0.000    0.00
  19.850    4.20   -2.51   -1.18   0.000   0.200   0.000    0.00
  19.900    4.36   -1.36   -1.32   0.000   0.200   0.000    0.00
  19.950    4.29   -3.39   -1.34   0.000   0.200   0.000    0.00
  20.000    4.22   -6.78   -0.96   0.000   0.200   0.000    0.00
  20.050    4.50   -3.07   -0.78   0.000   0.200   0.000    0.00
  20.100    4.42   -1.23   -0.88   0.000   0.200   0.000    0.00
  20.150    4.44   -3.08   -1.18   0.000   0.200   0.000    0.00
  20.200    4.11   -5.59   -1.11   0.000   0.200   0.000    0.00
  20.250    4.09   -6.76   -0.84   0.000   0.200   0.000    0.00
  20.300    4.14   -6.72   -0.85   0.000   0.200   0.000    0.00
  20.350    4.14   -5.98   -0.97   0.000   0.200   0.000    0.00
  20.400    4.25   -8.53   -0.96   0.000   0.200   0.000    0.00
  20.450    4.22   -6.52   -0.73   0.000   0.200   0.000    0.00
  20.500    4.07   -3.02   -0.72   0.000   0.200   0.000    0.00
  20.550    3.99   -4.52   -0.65   0.000   0.200   0.000    0.00
  20.600    4.08   -5.21   -0.72   0.000   0.200   0.000    0.00
  20.650    4.20   -7.73   -0.68   0.000   0.200   0.000    0.00
  20.700    4.29  -11.98   -0.60   0.000   0.200   0.000    0.00
  20.750    4.22   -9.10   -0.52   0.000   0.200   0.000    0.00
  20.800    4.26  -13.44   -0.53   0.000   0.200   0.000    0.00
  20.850    4.13   -8.85   -0.24   0.000   0.200   0.000    0.00
  20.900    3.87   -7.47   -0.09   0.000   0.200   0.000    0.00
  20.950    3.79  -13.21   -0.15   0.000   0.200   0.000    0.00
  21.000    3.62  -13.75   -0.15   0.000   0.200   0.000    0.00
  21.050    3.85  -13.14    0.03   0.000   0.200   0.000    0.00
  21.100    3.98  -12.22   -0.03   0.000   0.200   0.000    0.00
  21.150    4.09  -12.59   -0.05   0.000   0.200   0.000    0.00
  21.200    3.96  -13.48   -0.23   0.000   0.200   0.000    0.00
  21.250    3.91  -15.64   -0.31   0.000   0.200   0.000    0.00
  21.300    3.77  -14.74   -0.80   0.000   0.200   0.000    0.00
  21.350    3.81  -17.83   -0.92   0.000   0.200   0.000    0.00
  21.400    3.75  -17.36   -0.90   0.000   0.200   0.000    0.00
  21.450    3.90  -14.89   -0.58   0.000   0.200   0.000    0.00
  21.500    3.61  -16.58   -0.55   0.000   0.200   0.000    0.00
  21.550    3.60  -15.79   -0.40   0.000   0.200   0.000    0.00
  21.600    3.49  -13.83   -0.52   0.000   0.200   0.000    0.00
  21.650    3.52  -15.15   -0.62   0.000   0.200   0.000    0.00
  21.700    3.39  -10.76   -0.62   0.000   0.200   0.000    0.00
  21.750    3.68  -10.38   -0.67   0.000   0.200   0.000    0.00
  21.800    3.76  -10.87   -0.58   0.000   0.200   0.000    0.00
  21.850    3.78  -12.43   -0.55   0.000   0.200   0.000    0.00
  21.900    3.95   -8.01   -0.67   0.000   0.200   0.000    0.00
  21.950    3.85   -7.85   -0.51   0.000   0.200   0.000    0.00
  22.000    3.81   -8.18   -0.54   0.000   0.200   0.000    0.00
  22.050    3.82   -8.55   -0.50   0.000   0.200   0.000    0.00
  22.100    3.65   -7.82   -0.75   0.000   0.200   0.000    0.00
  22.150    3.95   -6.65   -0.57   0.000   0.200   0.000    0.00
  22.200    4.13   -6.64   -0.76   0.000   0.200   0.000    0.00
  22.250    4.06   -9.87   -0.90   0.000   0.200   0.000    0.00
  22.300    4.01   -8.80   -0.87   0.000   0.200   0.000    0.00
  22.350    4.07   -9.52   -0.78   0.000   0.200   0.000    0.00