! This hub-height wind-speed file was generated by TurbSim (v1.06.00, 21-Sep-2012) on 16-Jun-2018 at 18:31:54.
!
! The requested statistics for this data were:
!    Mean Total Wind Speed =   15.000 m/s
!    Turbulence Intensity  =   15.727%
!
!   Time  HorSpd  WndDir  VerSpd  HorShr  VerShr  LnVShr  GstSpd
!  (sec)   (m/s)   (deg)   (m/s)     (-)     (-)     (-)   (m/s)
   0.000   18.68    8.06    1.52   0.000   0.200   0.000    0.00
   0.050   18.21    8.06    1.31   0.000   0.200   0.000    0.00
   0.100   18.07    9.13    0.94   0.000   0.200   0.000    0.00
   0.150   18.36    7.61    0.98   0.000   0.200   0.000    0.00
   0.200   18.09    4.21    0.60   0.000   0.200   0.000    0.00
   0.250   18.10    5.28    0.22   0.000   0.200   0.000    0.00
   0.300   17.64    6.99    0.12   0.000   0.200   0.000    0.00
   0.350   17.06    6.46    0.28   0.000   0.200   0.000    0.00
   0.400   17.08    8.82    0.46   0.000   0.200   0.000    0.00
   0.450   17.32    7.74    0.71   0.000   0.200   0.000    0.00
   0.500   17.45    7.89    0.28   0.000   0.200   0.000    0.00
   0.550   18.12    7.41   -0.21   0.000   0.200   0.000    0.00
   0.600   18.10    6.48    0.11   0.000   0.200   0.000    0.00
   0.650   18.13    5.94    0.34   0.000   0.200   0.000    0.00
   0.700   17.81    5.54   -0.22   0.000   0.200   0.000    0.00
   0.750   18.44    5.44    0.55   0.000   0.200   0.000    0.00
   0.800   17.78    6.94    1.11   0.000   0.200   0.000    0.00
   0.850   18.19    7.73    1.03   0.000   0.200   0.000    0.00
   0.900   17.92    6.54    0.46   0.000   0.200   0.000    0.00
   0.950   18.00    7.00    0.35   0.000   0.200   0.000    0.00
   1.000   17.93    5.92    0.58   0.000   0.200   0.000    0.00
   1.050   17.52    6.32   -0.07   0.000   0.200   0.000    0.00
   1.100   17.48    5.15    0.18   0.000   0.200   0.000    0.00
   1.150   18.07    5.34    0.68   0.000   0.200   0.000    0.00
   1.200   18.42    5.12    0.97   0.000   0.200   0.000    0.00
   1.250   18.37    4.03    0.41   0.000   0.200   0.000    0.00
   1.300   18.62    6.40    0.62   0.000   0.200   0.000    0.00
   1.350   18.29    6.37   -0.33   0.000   0.200   0.000    0.00
   1.400   18.35    7.76    0.51   0.000   0.200   0.000    0.00
   1.450   18.95    8.15    0.68   0.000   0.200   0.000    0.00
   1.500   18.53    8.36    0.46   0.000   0.200   0.000    0.00
   1.550   18.70    9.04    1.19   0.000   0.200   0.000    0.00
   1.600   18.88    9.68    1.16   0.000   0.200   0.000    0.00
   1.650   19.02    9.43    1.63   0.000   0.200   0.000    0.00
   1.700   18.68    9.37    1.91   0.000   0.200   0.000    0.00
   1.750   18.41    8.44    2.23   0.000   0.200   0.000    0.00
   1.800   18.58    8.06    2.16   0.000   0.200   0.000    0.00
   1.850   18.41    7.14    1.75   0.000   0.200   0.000    0.00
   1.900   18.21    7.05    2.06   0.000   0.200   0.000    0.00
   1.950   18.10    6.76    1.75   0.000   0.200   0.000    0.00
   2.000   18.29    5.16    2.21   0.000   0.200   0.000    0.00
   2.050   18.99    6.44    2.46   0.000   0.200   0.000    0.00
   2.100   19.86    6.10    1.88   0.000   0.200   0.000    0.00
   2.150   20.16    6.89    1.41   0.000   0.200   0.000    0.00
   2.200   20.32    7.41    0.82   0.000   0.200   0.000    0.00
   2.250   19.71    8.49    0.95   0.000   0.200   0.000    0.00
   2.300   19.93    8.78    0.81   0.000   0.200   0.000    0.00
   2.350   19.05    6.70    0.40   0.000   0.200   0.000    0.00
   2.400   18.87    5.48   -0.21   0.000   0.200   0.000    0.00
   2.450   19.27    3.96    0.00   0.000   0.200   0.000    0.00
   2.500   19.76    2.57    0.46   0.000   0.200   0.000    0.00
   2.550   19.87    2.75    1.21   0.000   0.200   0.000    0.00
   2.600   19.86    4.05    1.04   0.000   0.200   0.000    0.00
   2.650   19.07    4.06    0.72   0.000   0.200   0.000    0.00
   2.700   18.81    5.67    0.16   0.000   0.200   0.000    0.00
   2.750   19.28    5.58    0.07   0.000   0.200   0.000    0.00
   2.800   18.33    4.10   -0.08   0.000   0.200   0.000    0.00
   2.850   17.91    1.08   -0.43   0.000   0.200   0.000    0.00
   2.900   17.75    2.25   -1.42   0.000   0.200   0.000    0.00
   2.950   17.10    1.35   -0.40   0.000   0.200   0.000    0.00
   3.000   17.33    4.02    0.19   0.000   0.200   0.000    0.00
   3.050   17.73    1.29    0.15   0.000   0.200   0.000    0.00
   3.100   17.96    3.67   -0.04   0.000   0.200   0.000    0.00
   3.150   17.83    4.13   -0.96   0.000   0.200   0.000    0.00
   3.200   17.50    5.35   -0.40   0.000   0.200   0.000    0.00
   3.250   17.31    4.94   -0.68   0.000   0.200   0.000    0.00
   3.300   15.98    6.90   -1.01   0.000   0.200   0.000    0.00
   3.350   15.89    7.28   -0.83   0.000   0.200   0.000    0.00
   3.400   16.26    6.76   -0.55   0.000   0.200   0.000    0.00
   3.450   16.55    5.36    0.51   0.000   0.200   0.000    0.00
   3.500   16.59    8.17    0.32   0.000   0.200   0.000    0.00
   3.550   16.24    6.37   -0.25   0.000   0.200   0.000    0.00
   3.600   16.42    6.01   -0.60   0.000   0.200   0.000    0.00
   3.650   16.49    4.51    0.32   0.000   0.200   0.000    0.00
   3.700   16.25    3.63    0.34   0.000   0.200   0.000    0.00
   3.750   16.05    2.49   -0.02   0.000   0.200   0.000    0.00
   3.800   16.37   -0.60    0.14   0.000   0.200   0.000    0.00
   3.850   16.29    1.90    0.12   0.000   0.200   0.000    0.00
   3.900   16.32    5.01    0.47   0.000   0.200   0.000    0.00
   3.950   15.83    6.34    0.85   0.000   0.200   0.000    0.00
   4.000   16.05    4.90    0.29   0.000   0.200   0.000    0.00
   4.050   15.92    3.85    0.60   0.000   0.200   0.000    0.00
   4.100   16.19    2.12    0.80   0.000   0.200   0.000    0.00
   4.150   16.86    2.43    0.28   0.000   0.200   0.000    0.00
   4.200   17.11    1.44    0.62   0.000   0.200   0.000    0.00
   4.250   17.43    2.36   -0.18   0.000   0.200   0.000    0.00
   4.300   17.37   -0.92    0.15   0.000   0.200   0.000    0.00
   4.350   17.60   -1.19    0.75   0.000   0.200   0.000    0.00
   4.400   17.39   -0.77    0.33   0.000   0.200   0.000    0.00
   4.450   17.43    3.54    0.62   0.000   0.200   0.000    0.00
   4.500   17.20    2.41   -0.11   0.000   0.200   0.000    0.00
   4.550   16.69    2.94   -0.58   0.000   0.200   0.000    0.00
   4.600   15.79    2.25   -0.01   0.000   0.200   0.000    0.00
   4.650   15.91    0.56    0.12   0.000   0.200   0.000    0.00
   4.700   15.80    0.81    0.78   0.000   0.200   0.000    0.00
   4.750   15.52    3.81    1.00   0.000   0.200   0.000    0.00
   4.800   16.12    5.57    1.24   0.000   0.200   0.000    0.00
   4.850   16.66    6.49    1.19   0.000   0.200   0.000    0.00
   4.900   16.34    5.72    0.95   0.000   0.200   0.000    0.00
   4.950   16.27    5.45    0.72   0.000   0.200   0.000    0.00
   5.000   15.73    4.27    0.14   0.000   0.200   0.000    0.00
   5.050   15.50    6.46    0.56   0.000   0.200   0.000    0.00
   5.100   15.04    9.28    0.35   0.000   0.200   0.000    0.00
   5.150   15.16    6.79   -0.14   0.000   0.200   0.000    0.00
   5.200   15.57    8.59    0.28   0.000   0.200   0.000    0.00
   5.250   15.61    9.08   -0.47   0.000   0.200   0.000    0.00
   5.300   15.94    8.57   -0.61   0.000   0.200   0.000    0.00
   5.350   15.81    8.87   -0.65   0.000   0.200   0.000    0.00
   5.400   15.36    8.76   -0.59   0.000   0.200   0.000    0.00
   5.450   15.83    8.86   -0.70   0.000   0.200   0.000    0.00
   5.500   15.40    5.55   -0.41   0.000   0.200   0.000    0.00
   5.550   15.34    4.35   -0.65   0.000   0.200   0.000    0.00
   5.600   15.14    5.40   -0.25   0.000   0.200   0.000    0.00
   5.650   15.06    7.28   -0.02   0.000   0.200   0.000    0.00
   5.700   14.71    7.82   -0.46   0.000   0.200   0.000    0.00
   5.750   14.40    8.89   -0.69   0.000   0.200   0.000    0.00
   5.800   14.64   11.49   -0.96   0.000   0.200   0.000    0.00
   5.850   15.33    7.92   -0.82   0.000   0.200   0.000    0.00
   5.900   15.18    7.43   -0.78   0.000   0.200   0.000    0.00
   5.950   14.71    6.58   -0.37   0.000   0.200   0.000    0.00
   6.000   14.62    5.12   -0.69   0.000   0.200   0.000    0.00
   6.050   14.73    5.93   -0.97   0.000   0.200   0.000    0.00
   6.100   14.76    2.16   -0.52   0.000   0.200   0.000    0.00
   6.150   15.35    2.91   -0.66   0.000   0.200   0.000    0.00
   6.200   14.34    3.55   -0.92   0.000   0.200   0.000    0.00
   6.250   14.33    1.46   -0.16   0.000   0.200   0.000    0.00
   6.300   14.61    0.91    0.31   0.000   0.200   0.000    0.00
   6.350   14.13    1.11    0.27   0.000   0.200   0.000    0.00
   6.400   14.05    1.29    0.84   0.000   0.200   0.000    0.00
   6.450   14.38   -1.22    1.02   0.000   0.200   0.000    0.00
   6.500   14.18   -1.71    0.06   0.000   0.200   0.000    0.00
   6.550   14.49    1.16   -0.14   0.000   0.200   0.000    0.00
   6.600   14.08    1.13   -0.10   0.000   0.200   0.000    0.00
   6.650   14.03    0.37   -0.02   0.000   0.200   0.000    0.00
   6.700   14.22    0.61   -0.11   0.000   0.200   0.000    0.00
   6.750   14.46    0.81    0.18   0.000   0.200   0.000    0.00
   6.800   14.26    3.70    0.17   0.000   0.200   0.000    0.00
   6.850   14.02    4.65    0.23   0.000   0.200   0.000    0.00
   6.900   14.00    5.23    0.89   0.000   0.200   0.000    0.00
   6.950   14.45    3.95    0.12   0.000   0.200   0.000    0.00
   7.000   14.07    4.86    0.64   0.000   0.200   0.000    0.00
   7.050   14.40    7.14    0.17   0.000   0.200   0.000    0.00
   7.100   14.40    5.39   -0.16   0.000   0.200   0.000    0.00
   7.150   14.38    7.62    0.37   0.000   0.200   0.000    0.00
   7.200   14.19    9.52    1.10   0.000   0.200   0.000    0.00
   7.250   13.93    8.96    1.14   0.000   0.200   0.000    0.00
   7.300   14.18   14.20    0.86   0.000   0.200   0.000    0.00
   7.350   14.20   11.69    1.35   0.000   0.200   0.000    0.00
   7.400   14.76    9.36    0.95   0.000   0.200   0.000    0.00
   7.450   14.87    9.13    0.68   0.000   0.200   0.000    0.00
   7.500   14.25    8.33    0.10   0.000   0.200   0.000    0.00
   7.550   14.22    9.13    0.59   0.000   0.200   0.000    0.00
   7.600   15.18    7.80    0.75   0.000   0.200   0.000    0.00
   7.650   15.27    8.62    0.95   0.000   0.200   0.000    0.00
   7.700   15.66    8.05   -0.33   0.000   0.200   0.000    0.00
   7.750   16.22    4.77   -0.63   0.000   0.200   0.000    0.00
   7.800   16.00    6.68   -0.23   0.000   0.200   0.000    0.00
   7.850   16.27    3.36   -0.39   0.000   0.200   0.000    0.00
   7.900   15.32    2.56   -0.30   0.000   0.200   0.000    0.00
   7.950   15.75    4.31   -0.23   0.000   0.200   0.000    0.00
   8.000   15.49    2.15    0.53   0.000   0.200   0.000    0.00
   8.050   15.48    0.53    0.57   0.000   0.200   0.000    0.00
   8.100   15.47    1.39   -0.05   0.000   0.200   0.000    0.00
   8.150   15.08    1.36    0.33   0.000   0.200   0.000    0.00
   8.200   15.58    3.47   -0.25   0.000   0.200   0.000    0.00
   8.250   15.75    2.85   -0.14   0.000   0.200   0.000    0.00
   8.300   16.19   -0.48    0.28   0.000   0.200   0.000    0.00
   8.350   16.65   -0.41    0.66   0.000   0.200   0.000    0.00
   8.400   16.36   -1.13    1.16   0.000   0.200   0.000    0.00
   8.450   16.29   -0.44    0.06   0.000   0.200   0.000    0.00
   8.500   15.87   -1.12   -0.19   0.000   0.200   0.000    0.00
   8.550   16.09   -0.31    0.21   0.000   0.200   0.000    0.00
   8.600   15.85    1.35    0.13   0.000   0.200   0.000    0.00
   8.650   15.77   -0.41   -0.43   0.000   0.200   0.000    0.00
   8.700   15.59   -0.58    0.71   0.000   0.200   0.000    0.00
   8.750   15.89   -1.90    0.94   0.000   0.200   0.000    0.00
   8.800   15.95   -0.18    1.18   0.000   0.200   0.000    0.00
   8.850   15.93    0.85    0.30   0.000   0.200   0.000    0.00
   8.900   16.14    1.35   -0.38   0.000   0.200   0.000    0.00
   8.950   16.09    1.40    0.28   0.000   0.200   0.000    0.00
   9.000   16.00    2.44    0.66   0.000   0.200   0.000    0.00
   9.050   16.44    4.77    0.67   0.000   0.200   0.000    0.00
   9.100   16.76    5.59    0.48   0.000   0.200   0.000    0.00
   9.150   16.61    6.76   -0.17   0.000   0.200   0.000    0.00
   9.200   16.20    4.73   -0.26   0.000   0.200   0.000    0.00
   9.250   16.04    4.12   -0.20   0.000   0.200   0.000    0.00
   9.300   16.17    3.99   -0.41   0.000   0.200   0.000    0.00
   9.350   16.37    3.49   -0.17   0.000   0.200   0.000    0.00
   9.400   16.22    5.79   -0.04   0.000   0.200   0.000    0.00
   9.450   16.03    4.79   -0.33   0.000   0.200   0.000    0.00
   9.500   15.91    7.04   -1.16   0.000   0.200   0.000    0.00
   9.550   15.50    6.88   -0.22   0.000   0.200   0.000    0.00
   9.600   15.43    3.01   -0.99   0.000   0.200   0.000    0.00
   9.650   15.38    2.26   -0.65   0.000   0.200   0.000    0.00
   9.700   15.78    6.14   -0.90   0.000   0.200   0.000    0.00
   9.750   15.68    7.27   -1.13   0.000   0.200   0.000    0.00
   9.800   15.69    3.08   -0.61   0.000   0.200   0.000    0.00
   9.850   16.45    5.96   -0.64   0.000   0.200   0.000    0.00
   9.900   16.34    7.31   -0.02   0.000   0.200   0.000    0.00
   9.950   16.48    6.17   -0.36   0.000   0.200   0.000    0.00
  10.000   17.01    6.83   -0.99   0.000   0.200   0.000    0.00
  10.050   17.42    6.43   -1.09   0.000   0.200   0.000    0.00
  10.100   17.72    6.66   -1.00   0.000   0.200   0.000    0.00
  10.150   18.05    5.68   -1.76   0.000   0.200   0.000    0.00
  10.200   17.11    5.30   -2.30   0.000   0.200   0.000    0.00
  10.250   16.72    8.29   -2.64   0.000   0.200   0.000    0.00
  10.300   16.73    9.37   -2.65   0.000   0.200   0.000    0.00
  10.350   16.10    9.05   -2.36   0.000   0.200   0.000    0.00
  10.400   16.66    9.58   -1.94   0.000   0.200   0.000    0.00
  10.450   16.51    8.66   -1.05   0.000   0.200   0.000    0.00
  10.500   17.79    7.08   -0.60   0.000   0.200   0.000    0.00
  10.550   17.06    8.78   -0.90   0.000   0.200   0.000    0.00
  10.600   16.54    8.93   -0.23   0.000   0.200   0.000    0.00
  10.650   16.65   10.88   -0.41   0.000   0.200   0.000    0.00
  10.700   16.58   12.64   -1.12   0.000   0.200   0.000    0.00
  10.750   16.63   11.55   -0.45   0.000   0.200   0.000    0.00
  10.800   16.57    8.85    0.16   0.000   0.200   0.000    0.00
  10.850   16.97    8.79   -0.53   0.000   0.200   0.000    0.00
  10.900   17.03    8.73   -1.13   0.000   0.200   0.000    0.00
  10.950   18.20    8.05   -0.33   0.000   0.200   0.000    0.00
  11.000   19.31    7.26    0.20   0.000   0.200   0.000    0.00
  11.050   19.26    8.83   -0.28   0.000   0.200   0.000    0.00
  11.100   18.90   11.32   -0.51   0.000   0.200   0.000    0.00
  11.150   18.82    8.21    0.04   0.000   0.200   0.000    0.00
  11.200   17.87    7.57   -0.44   0.000   0.200   0.000    0.00
  11.250   17.71    7.86   -0.17   0.000   0.200   0.000    0.00
  11.300   19.19    5.82   -0.74   0.000   0.200   0.000    0.00
  11.350   18.69    5.18   -0.55   0.000   0.200   0.000    0.00
  11.400   18.25    5.00   -0.01   0.000   0.200   0.000    0.00
  11.450   18.36    4.37    0.08   0.000   0.200   0.000    0.00
  11.500   17.97    4.89   -0.23   0.000   0.200   0.000    0.00
  11.550   17.96    3.61   -0.42   0.000   0.200   0.000    0.00
  11.600   17.87    0.50   -0.60   0.000   0.200   0.000    0.00
  11.650   17.14    0.50   -0.90   0.000   0.200   0.000    0.00
  11.700   16.84    3.61   -1.46   0.000   0.200   0.000    0.00
  11.750   16.41    2.94   -1.01   0.000   0.200   0.000    0.00
  11.800   16.71    4.50   -0.86   0.000   0.200   0.000    0.00
  11.850   16.95    5.39   -0.74   0.000   0.200   0.000    0.00
  11.900   17.10    3.41   -0.73   0.000   0.200   0.000    0.00
  11.950   16.67    4.65   -1.02   0.000   0.200   0.000    0.00
  12.000   15.74    5.74   -0.83   0.000   0.200   0.000    0.00
  12.050   16.41    7.41   -0.56   0.000   0.200   0.000    0.00
  12.100   16.28    8.61   -1.11   0.000   0.200   0.000    0.00
  12.150   16.83    7.40   -1.03   0.000   0.200   0.000    0.00
  12.200   16.77   10.66   -1.02   0.000   0.200   0.000    0.00
  12.250   16.49    9.12   -1.08   0.000   0.200   0.000    0.00
  12.300   17.39    6.94   -0.74   0.000   0.200   0.000    0.00
  12.350   17.98    6.74   -0.70   0.000   0.200   0.000    0.00
  12.400   18.41    6.15    0.14   0.000   0.200   0.000    0.00
  12.450   18.43    7.40   -0.26   0.000   0.200   0.000    0.00
  12.500   17.10    4.87   -0.02   0.000   0.200   0.000    0.00
  12.550   17.94    6.07   -0.23   0.000   0.200   0.000    0.00
  12.600   18.01    7.98   -0.15   0.000   0.200   0.000    0.00
  12.650   18.23    9.06   -0.75   0.000   0.200   0.000    0.00
  12.700   18.27    8.36   -0.37   0.000   0.200   0.000    0.00
  12.750   17.72    7.79   -0.91   0.000   0.200   0.000    0.00
  12.800   17.83    8.65   -1.45   0.000   0.200   0.000    0.00
  12.850   17.45    9.83   -0.90   0.000   0.200   0.000    0.00
  12.900   17.33    9.31   -1.11   0.000   0.200   0.000    0.00
  12.950   17.21    9.93   -1.13   0.000   0.200   0.000    0.00
  13.000   17.09   10.56   -0.18   0.000   0.200   0.000    0.00
  13.050   16.77   11.70    0.48   0.000   0.200   0.000    0.00
  13.100   16.65    9.07    0.74   0.000   0.200   0.000    0.00
  13.150   16.95    6.76    1.02   0.000   0.200   0.000    0.00
  13.200   17.18    7.20    0.48   0.000   0.200   0.000    0.00
  13.250   17.54    6.36    1.44   0.000   0.200   0.000    0.00
  13.300   17.70    5.08    0.82   0.000   0.200   0.000    0.00
  13.350   17.43    5.71    0.91   0.000   0.200   0.000    0.00
  13.400   17.31    5.53    0.55   0.000   0.200   0.000    0.00
  13.450   17.48    5.07    0.79   0.000   0.200   0.000    0.00
  13.500   17.02    6.27    1.14   0.000   0.200   0.000    0.00
  13.550   17.10    3.81    1.57   0.000   0.200   0.000    0.00
  13.600   17.04    2.91    1.15   0.000   0.200   0.000    0.00
  13.650   16.27    1.03    1.08   0.000   0.200   0.000    0.00
  13.700   15.99    0.97    1.93   0.000   0.200   0.000    0.00
  13.750   16.18    0.84    1.17   0.000   0.200   0.000    0.00
  13.800   15.94    1.54    0.93   0.000   0.200   0.000    0.00
  13.850   15.23   -0.88    1.47   0.000   0.200   0.000    0.00
  13.900   14.78   -2.61    1.15   0.000   0.200   0.000    0.00
  13.950   14.87   -3.80    1.18   0.000   0.200   0.000    0.00
  14.000   15.61   -4.07    1.29   0.000   0.200   0.000    0.00
  14.050   14.69   -3.48    0.70   0.000   0.200   0.000    0.00
  14.100   15.09   -2.58    0.88   0.000   0.200   0.000    0.00
  14.150   14.85   -3.36    0.40   0.000   0.200   0.000    0.00
  14.200   14.18   -3.05    0.05   0.000   0.200   0.000    0.00
  14.250   14.30   -3.54    0.64   0.000   0.200   0.000    0.00
  14.300   14.04   -4.93    1.01   0.000   0.200   0.000    0.00
  14.350   13.87   -5.43    1.13   0.000   0.200   0.000    0.00
  14.400   13.62   -2.63    0.78   0.000   0.200   0.000    0.00
  14.450   13.92   -5.27    1.02   0.000   0.200   0.000    0.00
  14.500   14.28   -6.22    1.51   0.000   0.200   0.000    0.00
  14.550   13.91   -6.12    1.37   0.000   0.200   0.000    0.00
  14.600   13.41   -3.33    1.23   0.000   0.200   0.000    0.00
  14.650   13.91   -1.64    1.06   0.000   0.200   0.000    0.00
  14.700   13.94   -2.06    1.77   0.000   0.200   0.000    0.00
  14.750   14.06   -1.32    2.24   0.000   0.200   0.000    0.00
  14.800   14.32   -2.21    2.17   0.000   0.200   0.000    0.00
  14.850   13.86   -1.93    2.63   0.000   0.200   0.000    0.00
  14.900   13.01    2.88    2.14   0.000   0.200   0.000    0.00
  14.950   12.65    6.05    1.95   0.000   0.200   0.000    0.00
  15.000   12.50    6.82    2.37   0.000   0.200   0.000    0.00
  15.050   12.79    9.07    2.68   0.000   0.200   0.000    0.00
  15.100   13.01    9.39    2.74   0.000   0.200   0.000    0.00
  15.150   12.89    9.62    2.70   0.000   0.200   0.000    0.00
  15.200   12.79    8.31    2.67   0.000   0.200   0.000    0.00
  15.250   13.23    6.87    2.02   0.000   0.200   0.000    0.00
  15.300   13.32    9.06    1.85   0.000   0.200   0.000    0.00
  15.350   13.23    7.62    2.42   0.000   0.200   0.000    0.00
  15.400   14.71    8.74    2.25   0.000   0.200   0.000    0.00
  15.450   14.79    9.25    2.86   0.000   0.200   0.000    0.00
  15.500   14.25   10.53    2.72   0.000   0.200   0.000    0.00
  15.550   14.60    9.84    3.25   0.000   0.200   0.000    0.00
  15.600   13.94    5.29    3.28   0.000   0.200   0.000    0.00
  15.650   14.29    1.55    3.58   0.000   0.200   0.000    0.00
  15.700   13.86   -0.77    3.63   0.000   0.200   0.000    0.00
  15.750   13.67   -1.67    4.15   0.000   0.200   0.000    0.00
  15.800   13.42    0.81    4.54   0.000   0.200   0.000    0.00
  15.850   13.28   -1.47    4.96   0.000   0.200   0.000    0.00
  15.900   12.86    1.36    4.64   0.000   0.200   0.000    0.00
  15.950   13.16   -2.30    3.41   0.000   0.200   0.000    0.00
  16.000   13.06   -2.97    3.61   0.000   0.200   0.000    0.00
  16.050   14.16   -2.28    3.42   0.000   0.200   0.000    0.00
  16.100   14.43   -2.93    3.51   0.000   0.200   0.000    0.00
  16.150   15.34   -5.87    2.52   0.000   0.200   0.000    0.00
  16.200   16.11   -4.77    2.88   0.000   0.200   0.000    0.00
  16.250   16.55   -6.03    4.13   0.000   0.200   0.000    0.00
  16.300   16.39   -4.84    4.42   0.000   0.200   0.000    0.00
  16.350   17.13   -4.60    3.41   0.000   0.200   0.000    0.00
  16.400   17.18   -3.41    3.23   0.000   0.200   0.000    0.00
  16.450   17.04   -1.55    2.35   0.000   0.200   0.000    0.00
  16.500   16.93   -0.22    2.25   0.000   0.200   0.000    0.00
  16.550   16.24   -0.29    2.70   0.000   0.200   0.000    0.00
  16.600   16.28   -1.42    2.73   0.000   0.200   0.000    0.00
  16.650   17.35   -0.01    2.74   0.000   0.200   0.000    0.00
  16.700   17.02    3.75    3.00   0.000   0.200   0.000    0.00
  16.750   17.83    5.93    3.22   0.000   0.200   0.000    0.00
  16.800   17.63    5.14    2.64   0.000   0.200   0.000    0.00
  16.850   16.36    5.95    2.23   0.000   0.200   0.000    0.00
  16.900   16.14    4.11    2.66   0.000   0.200   0.000    0.00
  16.950   15.92    2.47    3.24   0.000   0.200   0.000    0.00
  17.000   15.84    2.59    2.66   0.000   0.200   0.000    0.00
  17.050   16.48    2.01    2.22   0.000   0.200   0.000    0.00
  17.100   16.16    2.86    2.39   0.000   0.200   0.000    0.00
  17.150   15.71    2.14    2.36   0.000   0.200   0.000    0.00
  17.200   15.71   -0.56    2.41   0.000   0.200   0.000    0.00
  17.250   15.38   -1.77    2.57   0.000   0.200   0.000    0.00
  17.300   15.89   -2.81    2.23   0.000   0.200   0.000    0.00
  17.350   15.25   -3.65    2.13   0.000   0.200   0.000    0.00
  17.400   14.72   -2.62    1.42   0.000   0.200   0.000    0.00
  17.450   14.45   -0.67    2.09   0.000   0.200   0.000    0.00
  17.500   15.14   -0.38    1.88   0.000   0.200   0.000    0.00
  17.550   14.96    1.86    1.15   0.000   0.200   0.000    0.00
  17.600   14.59    0.49    2.08   0.000   0.200   0.000    0.00
  17.650   14.27    0.47    1.81   0.000   0.200   0.000    0.00
  17.700   14.16    0.76    1.40   0.000   0.200   0.000    0.00
  17.750   13.49    3.40    0.86   0.000   0.200   0.000    0.00
  17.800   13.43    3.18    0.91   0.000   0.200   0.000    0.00
  17.850   13.61    1.58    1.34   0.000   0.200   0.000    0.00
  17.900   13.45   -0.02    1.35   0.000   0.200   0.000    0.00
  17.950   13.80    0.50    0.75   0.000   0.200   0.000    0.00
  18.000   14.47    0.52    0.40   0.000   0.200   0.000    0.00
  18.050   14.53    2.58    0.52   0.000   0.200   0.000    0.00
  18.100   14.26    0.03    0.89   0.000   0.200   0.000    0.00
  18.150   14.77   -1.13    0.63   0.000   0.200   0.000    0.00
  18.200   14.24    0.41    0.48   0.000   0.200   0.000    0.00
  18.250   14.80    1.16    0.15   0.000   0.200   0.000    0.00
  18.300   14.18    2.42    0.64   0.000   0.200   0.000    0.00
  18.350   13.89    0.75   -0.16   0.000   0.200   0.000    0.00
  18.400   14.22    3.70   -0.64   0.000   0.200   0.000    0.00
  18.450   13.59    2.63   -0.31   0.000   0.200   0.000    0.00
  18.500   13.36    5.06    0.36   0.000   0.200   0.000    0.00
  18.550   13.71    4.68    0.56   0.000   0.200   0.000    0.00
  18.600   13.96    3.04    1.13   0.000   0.200   0.000    0.00
  18.650   13.50    1.98    0.82   0.000   0.200   0.000    0.00
  18.700   13.51    0.66    0.81   0.000   0.200   0.000    0.00
  18.750   14.51    1.03   -0.27   0.000   0.200   0.000    0.00
  18.800   14.75    0.23   -0.75   0.000   0.200   0.000    0.00
  18.850   14.88    3.45   -0.21   0.000   0.200   0.000    0.00
  18.900   14.51    4.36    0.45   0.000   0.200   0.000    0.00
  18.950   14.14    4.44    0.89   0.000   0.200   0.000    0.00
  19.000   14.78    3.75    0.27   0.000   0.200   0.000    0.00
  19.050   14.34    2.14    0.47   0.000   0.200   0.000    0.00
  19.100   14.47    2.19    0.29   0.000   0.200   0.000    0.00
  19.150   14.03    2.50    0.34   0.000   0.200   0.000    0.00
  19.200   14.35    1.81    1.24   0.000   0.200   0.000    0.00
  19.250   14.47    2.85    0.77   0.000   0.200   0.000    0.00
  19.300   14.45   -0.26    0.73   0.000   0.200   0.000    0.00
  19.350   14.82   -0.98    0.75   0.000   0.200   0.000    0.00
  19.400   15.94    1.43   -0.34   0.000   0.200   0.000    0.00
  19.450   15.81   -2.38   -0.69   0.000   0.200   0.000    0.00
  19.500   15.34   -4.59   -0.58   0.000   0.200   0.000    0.00
  19.550   15.42   -4.61   -0.53   0.000   0.200   0.000    0.00
  19.600   15.33   -6.32    0.47   0.000   0.200   0.000    0.00
  19.650   15.03   -6.82    0.85   0.000   0.200   0.000    0.00
  19.700   14.48   -2.22    1.41   0.000   0.200   0.000    0.00
  19.750   14.89   -3.81    1.26   0.000   0.200   0.000    0.00
  19.800   14.71   -1.79    0.91   0.000   0.200   0.000    0.00
  19.850   14.29   -3.84    1.01   0.000   0.200   0.000    0.00
  19.900   14.53   -1.94   -0.25   0.000   0.200   0.000    0.00
  19.950   14.56   -2.13   -0.38   0.000   0.200   0.000    0.00
  20.000   14.13   -3.08   -0.16   0.000   0.200   0.000    0.00
  20.050   14.53   -3.08    0.06   0.000   0.200   0.000    0.00
  20.100   14.58   -4.59    0.79   0.000   0.200   0.000    0.00
  20.150   14.69   -4.59    0.83   0.000   0.200   0.000    0.00
  20.200   15.16   -5.52    0.92   0.000   0.200   0.000    0.00
  20.250   14.82   -6.37    1.77   0.000   0.200   0.000    0.00
  20.300   14.61   -3.52    0.87   0.000   0.200   0.000    0.00
  20.350   14.75   -1.79    0.90   0.000   0.200   0.000    0.00
  20.400   15.13   -2.92    1.61   0.000   0.200   0.000    0.00
  20.450   14.89   -6.04    1.15   0.000   0.200   0.000    0.00
  20.500   15.40   -6.15    1.15   0.000   0.200   0.000    0.00
  20.550   15.06   -7.07    2.00   0.000   0.200   0.000    0.00
  20.600   14.92   -5.27    2.95   0.000   0.200   0.000    0.00
  20.650   15.03   -7.09    2.81   0.000   0.200   0.000    0.00
  20.700   14.36   -8.05    2.69   0.000   0.200   0.000    0.00
  20.750   14.23   -8.58    2.51   0.000   0.200   0.000    0.00
  20.800   14.50   -6.63    2.33   0.000   0.200   0.000    0.00
  20.850   14.71   -5.40    2.20   0.000   0.200   0.000    0.00
  20.900   15.02   -7.84    2.14   0.000   0.200   0.000    0.00
  20.950   15.75   -6.68    3.15   0.000   0.200   0.000    0.00
  21.000   14.98   -4.62    3.50   0.000   0.200   0.000    0.00
  21.050   14.45   -2.01    3.50   0.000   0.200   0.000    0.00
  21.100   13.95   -1.58    3.17   0.000   0.200   0.000    0.00
  21.150   14.03   -0.07    3.55   0.000   0.200   0.000    0.00
  21.200   14.21   -2.02    3.43   0.000   0.200   0.000    0.00
  21.250   13.42   -0.77    3.82   0.000   0.200   0.000    0.00
  21.300   13.72   -1.35    4.03   0.000   0.200   0.000    0.00
  21.350   14.01   -0.86    4.02   0.000   0.200   0.000    0.00
  21.400   13.78    0.99    3.05   0.000   0.200   0.000    0.00
  21.450   13.66   -0.36    2.96   0.000   0.200   0.000    0.00
  21.500   13.68   -0.51    2.06   0.000   0.200   0.000    0.00
  21.550   13.80   -3.64    2.28   0.000   0.200   0.000    0.00
  21.600   14.32   -2.19    2.17   0.000   0.200   0.000    0.00
  21.650   14.36   -1.76    2.91   0.000   0.200   0.000    0.00
  21.700   14.50    0.03    2.87   0.000   0.200   0.000    0.00
  21.750   15.01   -0.09    2.25   0.000   0.200   0.000    0.00
  21.800   14.60   -0.30    1.55   0.000   0.200   0.000    0.00
  21.850   14.61   -1.58    1.68   0.000   0.200   0.000    0.00
  21.900   14.74    0.07    2.21   0.000   0.200   0.000    0.00
  21.950   15.25   -0.98    2.54   0.000   0.200   0.000    0.00
  22.000   15.14    1.31    2.42   0.000   0.200   0.000    0.00
  22.050   15.11   -0.82    1.96   0.000   0.200   0.000    0.00
  22.100   14.89   -0.12    1.87   0.000   0.200   0.000    0.00
  22.150   14.87   -0.34    2.29   0.000   0.200   0.000    0.00
  22.200   14.72    0.89    2.22   0.000   0.200   0.000    0.00
  22.250   15.66   -1.56    1.75   0.000   0.200   0.000    0.00
  22.300   14.88    0.18    2.20   0.000   0.200   0.000    0.00
  22.350   15.11   -0.01    2.28   0.000   0.200   0.000    0.00