! This hub-height wind-speed file was generated by TurbSim (v1.06.00, 21-Sep-2012) on 16-Jun-2018 at 18:35:23.
!
! The requested statistics for this data were:
!    Mean Total Wind Speed =    5.000 m/s
!    Turbulence Intensity  =   26.180%
!
!   Time  HorSpd  WndDir  VerSpd  HorShr  VerShr  LnVShr  GstSpd
!  (sec)   (m/s)   (deg)   (m/s)     (-)     (-)     (-)   (m/s)
   0.000    4.85   -3.57    1.10   0.000   0.200   0.000    0.00
   0.050    4.99   -3.70    0.89   0.000   0.200   0.000    0.00
   0.100    4.84   -4.38    0.80   0.000   0.200   0.000    0.00
   0.150    4.93   -4.39    0.89   0.000   0.200   0.000    0.00
   0.200    4.79   -4.87    1.04   0.000   0.200   0.000    0.00
   0.250    4.90   -3.51    0.71   0.000   0.200   0.000    0.00
   0.300    4.92   -5.24    0.62   0.000   0.200   0.000    0.00
   0.350    4.84  -10.28    1.02   0.000   0.200   0.000    0.00
   0.400    4.83  -12.02    1.06   0.000   0.200   0.000    0.00
   0.450    4.79  -10.41    0.94   0.000   0.200   0.000    0.00
   0.500    4.95   -9.48    1.06   0.000   0.200   0.000    0.00
   0.550    4.74  -10.64    0.83   0.000   0.200   0.000    0.00
   0.600    4.52  -12.26    0.76   0.000   0.200   0.000    0.00
   0.650    4.24  -11.14    0.69   0.000   0.200   0.000    0.00
   0.700    4.09   -9.02    0.86   0.000   0.200   0.000    0.00
   0.750    3.97   -7.63    0.91   0.000   0.200   0.000    0.00
   0.800    4.03   -8.81    1.16   0.000   0.200   0.000    0.00
   0.850    4.21   -9.23    1.34   0.000   0.200   0.000    0.00
   0.900    4.21  -13.78    1.39   0.000   0.200   0.000    0.00
   0.950    4.15  -13.66    1.51   0.000   0.200   0.000    0.00
   1.000    4.05  -16.29    1.55   0.000   0.200   0.000    0.00
   1.050    4.01  -15.43    1.50   0.000   0.200   0.000    0.00
   1.100    4.07  -17.90    1.55   0.000   0.200   0.000    0.00
   1.150    4.39  -19.17    1.24   0.000   0.200   0.000    0.00
   1.200    4.58  -19.00    1.09   0.000   0.200   0.000    0.00
   1.250    4.39  -19.70    1.13   0.000   0.200   0.000    0.00
   1.300    4.40  -21.71    0.98   0.000   0.200   0.000    0.00
   1.350    4.39  -21.33    0.99   0.000   0.200   0.000    0.00
   1.400    4.01  -18.75    1.15   0.000   0.200   0.000    0.00
   1.450    4.34  -18.85    0.90   0.000   0.200   0.000    0.00
   1.500    4.38  -19.64    0.94   0.000   0.200   0.000    0.00
   1.550    4.46  -19.18    0.80   0.000   0.200   0.000    0.00
   1.600    4.49  -17.18    0.79   0.000   0.200   0.000    0.00
   1.650    4.39  -17.80    0.77   0.000   0.200   0.000    0.00
   1.700    4.12  -17.21    0.88   0.000   0.200   0.000    0.00
   1.750    4.30  -15.89    1.16   0.000   0.200   0.000    0.00
   1.800    4.44  -17.16    1.10   0.000   0.200   0.000    0.00
   1.850    4.23  -20.21    0.87   0.000   0.200   0.000    0.00
   1.900    4.18  -18.52    0.91   0.000   0.200   0.000    0.00
   1.950    4.16  -19.13    0.99   0.000   0.200   0.000    0.00
   2.000    4.02  -17.95    0.79   0.000   0.200   0.000    0.00
   2.050    4.14  -18.58    0.39   0.000   0.200   0.000    0.00
   2.100    4.18  -19.99    0.41   0.000   0.200   0.000    0.00
   2.150    4.38  -22.13    0.65   0.000   0.200   0.000    0.00
   2.200    4.78  -20.87    0.71   0.000   0.200   0.000    0.00
   2.250    4.62  -19.15    0.71   0.000   0.200   0.000    0.00
   2.300    4.76  -21.93    0.46   0.000   0.200   0.000    0.00
   2.350    4.42  -23.33    0.58   0.000   0.200   0.000    0.00
   2.400    4.28  -21.11    0.70   0.000   0.200   0.000    0.00
   2.450    4.61  -21.48    0.72   0.000   0.200   0.000    0.00
   2.500    4.51  -22.16    0.59   0.000   0.200   0.000    0.00
   2.550    4.37  -20.50    0.38   0.000   0.200   0.000    0.00
   2.600    4.30  -19.02    0.36   0.000   0.200   0.000    0.00
   2.650    4.37  -23.12    0.42   0.000   0.200   0.000    0.00
   2.700    4.11  -19.86    0.20   0.000   0.200   0.000    0.00
   2.750    4.26  -21.71    0.09   0.000   0.200   0.000    0.00
   2.800    4.19  -22.71   -0.12   0.000   0.200   0.000    0.00
   2.850    4.21  -21.21   -0.40   0.000   0.200   0.000    0.00
   2.900    4.31  -20.27   -0.53   0.000   0.200   0.000    0.00
   2.950    4.39  -17.44   -0.31   0.000   0.200   0.000    0.00
   3.000    4.32  -19.80   -0.31   0.000   0.200   0.000    0.00
   3.050    4.26  -18.62   -0.40   0.000   0.200   0.000    0.00
   3.100    4.15  -18.40   -0.45   0.000   0.200   0.000    0.00
   3.150    3.98  -19.24   -0.21   0.000   0.200   0.000    0.00
   3.200    4.08  -20.10   -0.53   0.000   0.200   0.000    0.00
   3.250    3.80  -21.18   -0.51   0.000   0.200   0.000    0.00
   3.300    3.72  -19.80   -0.56   0.000   0.200   0.000    0.00
   3.350    3.66  -18.92   -0.50   0.000   0.200   0.000    0.00
   3.400    3.92  -20.28   -0.65   0.000   0.200   0.000    0.00
   3.450    4.05  -23.64   -0.69   0.000   0.200   0.000    0.00
   3.500    4.15  -24.22   -0.53   0.000   0.200   0.000    0.00
   3.550    4.07  -24.18   -0.65   0.000   0.200   0.000    0.00
   3.600    3.97  -18.86   -0.33   0.000   0.200   0.000    0.00
   3.650    3.65  -20.84   -0.12   0.000   0.200   0.000    0.00
   3.700    3.47  -22.03    0.03   0.000   0.200   0.000    0.00
   3.750    3.39  -18.89   -0.13   0.000   0.200   0.000    0.00
   3.800    3.08  -25.04   -0.23   0.000   0.200   0.000    0.00
   3.850    3.16  -21.21   -0.24   0.000   0.200   0.000    0.00
   3.900    3.25  -16.22   -0.03   0.000   0.200   0.000    0.00
   3.950    3.42  -14.43    0.08   0.000   0.200   0.000    0.00
   4.000    3.18  -15.08    0.30   0.000   0.200   0.000    0.00
   4.050    2.90   -6.75    0.13   0.000   0.200   0.000    0.00
   4.100    3.06   -9.42    0.19   0.000   0.200   0.000    0.00
   4.150    3.45  -12.54    0.06   0.000   0.200   0.000    0.00
   4.200    3.38   -7.02    0.04   0.000   0.200   0.000    0.00
   4.250    3.16   -7.21    0.13   0.000   0.200   0.000    0.00
   4.300    3.06   -8.02    0.20   0.000   0.200   0.000    0.00
   4.350    3.10   -8.16    0.14   0.000   0.200   0.000    0.00
   4.400    3.14  -12.59    0.26   0.000   0.200   0.000    0.00
   4.450    3.45  -10.40    0.51   0.000   0.200   0.000    0.00
   4.500    3.58   -7.17    0.30   0.000   0.200   0.000    0.00
   4.550    3.66   -8.79    0.33   0.000   0.200   0.000    0.00
   4.600    3.58  -10.32    0.33   0.000   0.200   0.000    0.00
   4.650    3.34   -9.00    0.16   0.000   0.200   0.000    0.00
   4.700    3.45  -13.35    0.06   0.000   0.200   0.000    0.00
   4.750    3.44  -17.71   -0.04   0.000   0.200   0.000    0.00
   4.800    3.42  -16.45    0.15   0.000   0.200   0.000    0.00
   4.850    3.33  -11.22    0.33   0.000   0.200   0.000    0.00
   4.900    3.51   -6.78    0.45   0.000   0.200   0.000    0.00
   4.950    3.30   -6.66    0.29   0.000   0.200   0.000    0.00
   5.000    3.12   -6.31    0.16   0.000   0.200   0.000    0.00
   5.050    2.77   -7.30    0.55   0.000   0.200   0.000    0.00
   5.100    2.78   -4.10    0.65   0.000   0.200   0.000    0.00
   5.150    2.87   -3.55    0.64   0.000   0.200   0.000    0.00
   5.200    3.09   -4.93    0.72   0.000   0.200   0.000    0.00
   5.250    3.15   -4.72    0.31   0.000   0.200   0.000    0.00
   5.300    2.98   -4.72    0.29   0.000   0.200   0.000    0.00
   5.350    3.01   -0.45    0.28   0.000   0.200   0.000    0.00
   5.400    3.01   -6.98    0.34   0.000   0.200   0.000    0.00
   5.450    3.00   -4.74    0.22   0.000   0.200   0.000    0.00
   5.500    2.94   -1.07    0.49   0.000   0.200   0.000    0.00
   5.550    3.21   -7.34    0.50   0.000   0.200   0.000    0.00
   5.600    3.19   -8.51    0.58   0.000   0.200   0.000    0.00
   5.650    3.31   -9.53    0.64   0.000   0.200   0.000    0.00
   5.700    3.44   -7.24    0.69   0.000   0.200   0.000    0.00
   5.750    3.69   -4.73    0.70   0.000   0.200   0.000    0.00
   5.800    3.67   -5.07    0.68   0.000   0.200   0.000    0.00
   5.850    3.68   -8.72    0.74   0.000   0.200   0.000    0.00
   5.900    3.77   -8.47    0.73   0.000   0.200   0.000    0.00
   5.950    3.84   -5.22    0.84   0.000   0.200   0.000    0.00
   6.000    3.67  -10.01    0.95   0.000   0.200   0.000    0.00
   6.050    3.92   -7.53    0.77   0.000   0.200   0.000    0.00
   6.100    3.84   -7.57    0.85   0.000   0.200   0.000    0.00
   6.150    3.69   -6.34    0.84   0.000   0.200   0.000    0.00
   6.200    3.59   -0.41    1.01   0.000   0.200   0.000    0.00
   6.250    3.61   -0.58    0.97   0.000   0.200   0.000    0.00
   6.300    3.65   -8.33    1.01   0.000   0.200   0.000    0.00
   6.350    3.45   -8.47    0.94   0.000   0.200   0.000    0.00
   6.400    3.83   -6.91    0.54   0.000   0.200   0.000    0.00
   6.450    3.82   -0.23    0.44   0.000   0.200   0.000    0.00
   6.500    3.66   -2.10    0.71   0.000   0.200   0.000    0.00
   6.550    3.51   -2.57    0.64   0.000   0.200   0.000    0.00
   6.600    3.82   -3.86    0.44   0.000   0.200   0.000    0.00
   6.650    4.06   -5.18    0.71   0.000   0.200   0.000    0.00
   6.700    3.99   -1.39    0.67   0.000   0.200   0.000    0.00
   6.750    3.92   -2.34    0.44   0.000   0.200   0.000    0.00
   6.800    3.70    1.08    0.57   0.000   0.200   0.000    0.00
   6.850    3.57   -3.63    0.49   0.000   0.200   0.000    0.00
   6.900    3.76   -5.77    0.52   0.000   0.200   0.000    0.00
   6.950    3.98   -9.23    0.57   0.000   0.200   0.000    0.00
   7.000    4.08   -9.29    0.25   0.000   0.200   0.000    0.00
   7.050    4.10   -9.53    0.50   0.000   0.200   0.000    0.00
   7.100    4.02   -6.95    0.25   0.000   0.200   0.000    0.00
   7.150    4.01   -4.97   -0.08   0.000   0.200   0.000    0.00
   7.200    3.73    1.42    0.41   0.000   0.200   0.000    0.00
   7.250    3.99    4.04    0.63   0.000   0.200   0.000    0.00
   7.300    3.97    3.00    0.56   0.000   0.200   0.000    0.00
   7.350    3.86    5.30    0.48   0.000   0.200   0.000    0.00
   7.400    3.75    2.62    0.70   0.000   0.200   0.000    0.00
   7.450    3.90   -1.95    0.84   0.000   0.200   0.000    0.00
   7.500    3.73   -3.17    0.43   0.000   0.200   0.000    0.00
   7.550    3.80   -4.53    0.68   0.000   0.200   0.000    0.00
   7.600    3.73   -6.51    0.61   0.000   0.200   0.000    0.00
   7.650    3.93    1.15    0.70   0.000   0.200   0.000    0.00
   7.700    4.01   -2.07    0.55   0.000   0.200   0.000    0.00
   7.750    3.95   -3.41    0.35   0.000   0.200   0.000    0.00
   7.800    4.21   -3.43    0.43   0.000   0.200   0.000    0.00
   7.850    4.28   -4.75    0.58   0.000   0.200   0.000    0.00
   7.900    4.38   -6.78    0.64   0.000   0.200   0.000    0.00
   7.950    4.26   -8.26    0.76   0.000   0.200   0.000    0.00
   8.000    4.26   -8.09    0.85   0.000   0.200   0.000    0.00
   8.050    4.27  -13.05    0.89   0.000   0.200   0.000    0.00
   8.100    4.19  -13.32    1.08   0.000   0.200   0.000    0.00
   8.150    4.00  -17.70    1.13   0.000   0.200   0.000    0.00
   8.200    3.79  -14.80    1.00   0.000   0.200   0.000    0.00
   8.250    3.76  -18.09    1.14   0.000   0.200   0.000    0.00
   8.300    3.87  -11.42    1.25   0.000   0.200   0.000    0.00
   8.350    3.76   -1.64    1.50   0.000   0.200   0.000    0.00
   8.400    3.64    0.12    1.60   0.000   0.200   0.000    0.00
   8.450    3.81    3.31    1.58   0.000   0.200   0.000    0.00
   8.500    3.91   -0.33    1.32   0.000   0.200   0.000    0.00
   8.550    3.76   -1.73    1.47   0.000   0.200   0.000    0.00
   8.600    3.92    1.82    1.53   0.000   0.200   0.000    0.00
   8.650    3.86    2.60    1.54   0.000   0.200   0.000    0.00
   8.700    4.12    0.11    1.13   0.000   0.200   0.000    0.00
   8.750    4.21    2.36    1.29   0.000   0.200   0.000    0.00
   8.800    3.98   -1.36    1.01   0.000   0.200   0.000    0.00
   8.850    3.94   -3.98    1.01   0.000   0.200   0.000    0.00
   8.900    4.29   -3.65    0.97   0.000   0.200   0.000    0.00
   8.950    4.28    0.47    0.79   0.000   0.200   0.000    0.00
   9.000    4.23    0.78    0.86   0.000   0.200   0.000    0.00
   9.050    4.19   -3.49    0.96   0.000   0.200   0.000    0.00
   9.100    4.04   -3.26    1.02   0.000   0.200   0.000    0.00
   9.150    3.93   -0.29    1.25   0.000   0.200   0.000    0.00
   9.200    3.89    2.46    1.08   0.000   0.200   0.000    0.00
   9.250    3.86   -3.21    1.03   0.000   0.200   0.000    0.00
   9.300    3.79    4.72    0.77   0.000   0.200   0.000    0.00
   9.350    3.58    5.99    0.90   0.000   0.200   0.000    0.00
   9.400    3.50    1.79    1.01   0.000   0.200   0.000    0.00
   9.450    3.73    2.73    1.00   0.000   0.200   0.000    0.00
   9.500    3.83    7.19    1.22   0.000   0.200   0.000    0.00
   9.550    3.94    6.95    1.28   0.000   0.200   0.000    0.00
   9.600    4.02    5.41    1.44   0.000   0.200   0.000    0.00
   9.650    3.84    9.13    1.29   0.000   0.200   0.000    0.00
   9.700    3.88   10.05    1.31   0.000   0.200   0.000    0.00
   9.750    3.86   10.55    1.16   0.000   0.200   0.000    0.00
   9.800    3.74    8.08    1.08   0.000   0.200   0.000    0.00
   9.850    3.89    0.23    1.05   0.000   0.200   0.000    0.00
   9.900    3.77   -1.22    0.82   0.000   0.200   0.000    0.00
   9.950    3.70    2.76    0.55   0.000   0.200   0.000    0.00
  10.000    3.59    2.23    0.90   0.000   0.200   0.000    0.00
  10.050    3.24    5.62    0.92   0.000   0.200   0.000    0.00
  10.100    3.12    5.36    0.73   0.000   0.200   0.000    0.00
  10.150    3.25    5.96    0.52   0.000   0.200   0.000    0.00
  10.200    3.35    6.67    0.53   0.000   0.200   0.000    0.00
  10.250    3.35    4.89    0.52   0.000   0.200   0.000    0.00
  10.300    3.49    2.48    0.49   0.000   0.200   0.000    0.00
  10.350    3.30   -1.87    0.21   0.000   0.200   0.000    0.00
  10.400    3.74   -2.23    0.22   0.000   0.200   0.000    0.00
  10.450    3.75   -0.61    0.22   0.000   0.200   0.000    0.00
  10.500    3.68    2.97    0.46   0.000   0.200   0.000    0.00
  10.550    3.80    2.38    0.17   0.000   0.200   0.000    0.00
  10.600    3.91    3.21    0.23   0.000   0.200   0.000    0.00
  10.650    4.01    3.12   -0.14   0.000   0.200   0.000    0.00
  10.700    3.87    1.85    0.06   0.000   0.200   0.000    0.00
  10.750    3.71    2.48    0.11   0.000   0.200   0.000    0.00
  10.800    3.63    5.61    0.11   0.000   0.200   0.000    0.00
  10.850    3.79    8.09    0.16   0.000   0.200   0.000    0.00
  10.900    3.88    7.19    0.24   0.000   0.200   0.000    0.00
  10.950    3.83    3.82    0.24   0.000   0.200   0.000    0.00
  11.000    3.79    4.35    0.45   0.000   0.200   0.000    0.00
  11.050    3.95    1.37    0.33   0.000   0.200   0.000    0.00
  11.100    4.01    3.34    0.14   0.000   0.200   0.000    0.00
  11.150    4.05    1.90    0.22   0.000   0.200   0.000    0.00
  11.200    4.12    9.57    0.42   0.000   0.200   0.000    0.00
  11.250    4.00    9.05    0.08   0.000   0.200   0.000    0.00
  11.300    3.89    5.51    0.21   0.000   0.200   0.000    0.00
  11.350    3.87    2.20    0.28   0.000   0.200   0.000    0.00
  11.400    3.88    4.19    0.38   0.000   0.200   0.000    0.00
  11.450    4.07    4.33    0.29   0.000   0.200   0.000    0.00
  11.500    4.09    9.11    0.09   0.000   0.200   0.000    0.00
  11.550    4.28    4.40    0.12   0.000   0.200   0.000    0.00
  11.600    4.21    3.08    0.38   0.000   0.200   0.000    0.00
  11.650    4.25    5.32    0.30   0.000   0.200   0.000    0.00
  11.700    4.39    7.72    0.28   0.000   0.200   0.000    0.00
  11.750    4.36    3.67    0.25   0.000   0.200   0.000    0.00
  11.800    4.28    4.02    0.25   0.000   0.200   0.000    0.00
  11.850    4.14    6.46    0.41   0.000   0.200   0.000    0.00
  11.900    4.29    6.50    0.41   0.000   0.200   0.000    0.00
  11.950    4.07    7.46    0.23   0.000   0.200   0.000    0.00
  12.000    4.09    8.54    0.06   0.000   0.200   0.000    0.00
  12.050    4.21    6.56    0.24   0.000   0.200   0.000    0.00
  12.100    4.21    9.62    0.53   0.000   0.200   0.000    0.00
  12.150    4.10    8.07    0.57   0.000   0.200   0.000    0.00
  12.200    4.01    6.26    0.65   0.000   0.200   0.000    0.00
  12.250    4.16    5.09    0.82   0.000   0.200   0.000    0.00
  12.300    4.06    7.27    0.94   0.000   0.200   0.000    0.00
  12.350    4.23   10.18    0.87   0.000   0.200   0.000    0.00
  12.400    3.87    9.37    0.93   0.000   0.200   0.000    0.00
  12.450    3.98   10.04    1.10   0.000   0.200   0.000    0.00
  12.500    4.20   11.48    1.25   0.000   0.200   0.000    0.00
  12.550    4.15   12.52    1.30   0.000   0.200   0.000    0.00
  12.600    4.45   11.61    1.49   0.000   0.200   0.000    0.00
  12.650    4.22   11.48    1.48   0.000   0.200   0.000    0.00
  12.700    4.05   10.44    1.15   0.000   0.200   0.000    0.00
  12.750    4.17    6.47    0.87   0.000   0.200   0.000    0.00
  12.800    4.28    7.36    0.88   0.000   0.200   0.000    0.00
  12.850    4.56    7.43    1.06   0.000   0.200   0.000    0.00
  12.900    4.45    4.15    1.24   0.000   0.200   0.000    0.00
  12.950    4.30    3.59    1.42   0.000   0.200   0.000    0.00
  13.000    4.54    3.39    1.45   0.000   0.200   0.000    0.00
  13.050    4.67    3.56    1.17   0.000   0.200   0.000    0.00
  13.100    4.80    5.06    1.36   0.000   0.200   0.000    0.00
  13.150    4.68    6.85    1.29   0.000   0.200   0.000    0.00
  13.200    4.46    9.21    1.29   0.000   0.200   0.000    0.00
  13.250    4.27    4.47    1.28   0.000   0.200   0.000    0.00
  13.300    4.29    6.08    1.46   0.000   0.200   0.000    0.00
  13.350    4.41    3.58    1.33   0.000   0.200   0.000    0.00
  13.400    4.37    4.99    1.29   0.000   0.200   0.000    0.00
  13.450    4.44    8.54    1.31   0.000   0.200   0.000    0.00
  13.500    4.61    9.10    1.36   0.000   0.200   0.000    0.00
  13.550    4.75    6.82    1.16   0.000   0.200   0.000    0.00
  13.600    4.80    2.75    1.68   0.000   0.200   0.000    0.00
  13.650    4.57    0.86    1.49   0.000   0.200   0.000    0.00
  13.700    4.39    3.26    1.09   0.000   0.200   0.000    0.00
  13.750    4.20    3.84    1.57   0.000   0.200   0.000    0.00
  13.800    4.14    7.50    1.50   0.000   0.200   0.000    0.00
  13.850    4.31    8.08    1.31   0.000   0.200   0.000    0.00
  13.900    4.20    8.14    1.46   0.000   0.200   0.000    0.00
  13.950    4.46    5.60    1.50   0.000   0.200   0.000    0.00
  14.000    4.40    7.20    1.58   0.000   0.200   0.000    0.00
  14.050    4.39    8.86    1.80   0.000   0.200   0.000    0.00
  14.100    4.38   11.60    2.15   0.000   0.200   0.000    0.00
  14.150    4.60   11.87    1.96   0.000   0.200   0.000    0.00
  14.200    4.34    4.96    1.98   0.000   0.200   0.000    0.00
  14.250    4.17    1.54    1.95   0.000   0.200   0.000    0.00
  14.300    4.13    2.93    1.75   0.000   0.200   0.000    0.00
  14.350    4.06   -0.22    1.85   0.000   0.200   0.000    0.00
  14.400    4.02    1.80    1.99   0.000   0.200   0.000    0.00
  14.450    3.79    4.85    2.05   0.000   0.200   0.000    0.00
  14.500    4.19    7.85    1.96   0.000   0.200   0.000    0.00
  14.550    4.33    5.67    1.87   0.000   0.200   0.000    0.00
  14.600    4.45    3.78    1.75   0.000   0.200   0.000    0.00
  14.650    4.40    5.66    2.00   0.000   0.200   0.000    0.00
  14.700    4.46    6.02    1.96   0.000   0.200   0.000    0.00
  14.750    4.54    5.11    1.80   0.000   0.200   0.000    0.00
  14.800    4.58    3.22    1.85   0.000   0.200   0.000    0.00
  14.850    4.82    4.05    1.71   0.000   0.200   0.000    0.00
  14.900    4.71    5.81    1.94   0.000   0.200   0.000    0.00
  14.950    4.50    1.88    1.79   0.000   0.200   0.000    0.00
  15.000    4.52    1.44    1.75   0.000   0.200   0.000    0.00
  15.050    4.41    3.72    1.84   0.000   0.200   0.000    0.00
  15.100    4.42    6.26    1.68   0.000   0.200   0.000    0.00
  15.150    4.51    5.65    1.76   0.000   0.200   0.000    0.00
  15.200    4.39   -0.19    1.61   0.000   0.200   0.000    0.00
  15.250    3.91   -2.23    1.52   0.000   0.200   0.000    0.00
  15.300    3.86   -2.50    1.57   0.000   0.200   0.000    0.00
  15.350    4.18   -0.87    1.85   0.000   0.200   0.000    0.00
  15.400    4.29    1.80    1.51   0.000   0.200   0.000    0.00
  15.450    4.20    0.80    1.72   0.000   0.200   0.000    0.00
  15.500    4.24   -1.85    1.62   0.000   0.200   0.000    0.00
  15.550    4.15   -3.88    1.20   0.000   0.200   0.000    0.00
  15.600    4.21   -3.12    1.57   0.000   0.200   0.000    0.00
  15.650    4.08   -5.93    1.59   0.000   0.200   0.000    0.00
  15.700    4.42   -7.46    1.44   0.000   0.200   0.000    0.00
  15.750    4.71   -8.15    1.34   0.000   0.200   0.000    0.00
  15.800    4.43   -9.45    1.34   0.000   0.200   0.000    0.00
  15.850    4.46  -11.16    1.62   0.000   0.200   0.000    0.00
  15.900    4.55  -10.10    1.16   0.000   0.200   0.000    0.00
  15.950    4.60   -8.05    1.44   0.000   0.200   0.000    0.00
  16.000    4.71  -10.35    1.46   0.000   0.200   0.000    0.00
  16.050    4.41   -7.61    1.57   0.000   0.200   0.000    0.00
  16.100    4.43   -8.41    1.31   0.000   0.200   0.000    0.00
  16.150    4.41   -9.03    1.45   0.000   0.200   0.000    0.00
  16.200    4.54  -10.84    1.66   0.000   0.200   0.000    0.00
  16.250    4.68  -13.40    1.79   0.000   0.200   0.000    0.00
  16.300    4.82  -12.35    1.59   0.000   0.200   0.000    0.00
  16.350    4.77  -10.92    1.63   0.000   0.200   0.000    0.00
  16.400    4.79  -12.22    1.81   0.000   0.200   0.000    0.00
  16.450    4.91  -15.94    1.66   0.000   0.200   0.000    0.00
  16.500    5.20  -13.40    1.35   0.000   0.200   0.000    0.00
  16.550    5.34   -9.24    1.44   0.000   0.200   0.000    0.00
  16.600    5.47   -8.27    1.35   0.000   0.200   0.000    0.00
  16.650    5.75   -7.60    1.63   0.000   0.200   0.000    0.00
  16.700    5.49   -8.84    1.60   0.000   0.200   0.000    0.00
  16.750    5.39   -8.02    1.51   0.000   0.200   0.000    0.00
  16.800    5.42  -10.03    1.40   0.000   0.200   0.000    0.00
  16.850    5.38   -9.15    1.43   0.000   0.200   0.000    0.00
  16.900    5.39   -3.43    1.49   0.000   0.200   0.000    0.00
  16.950    5.27   -1.68    1.45   0.000   0.200   0.000    0.00
  17.000    5.39   -0.17    1.52   0.000   0.200   0.000    0.00
  17.050    5.60    0.15    1.74   0.000   0.200   0.000    0.00
  17.100    5.61   -0.56    1.83   0.000   0.200   0.000    0.00
  17.150    5.53    1.33    1.39   0.000   0.200   0.000    0.00
  17.200    5.58   -0.36    1.32   0.000   0.200   0.000    0.00
  17.250    5.58   -0.22    1.37   0.000   0.200   0.000    0.00
  17.300    5.52   -0.58    1.43   0.000   0.200   0.000    0.00
  17.350    5.52    2.31    1.57   0.000   0.200   0.000    0.00
  17.400    5.49    1.54    1.23   0.000   0.200   0.000    0.00
  17.450    5.40   -0.18    1.25   0.000   0.200   0.000    0.00
  17.500    5.32    0.84    1.14   0.000   0.200   0.000    0.00
  17.550    5.25   -0.45    1.05   0.000   0.200   0.000    0.00
  17.600    5.10   -3.20    0.98   0.000   0.200   0.000    0.00
  17.650    5.18   -3.97    0.86   0.000   0.200   0.000    0.00
  17.700    5.24   -4.61    0.95   0.000   0.200   0.000    0.00
  17.750    5.22    0.28    0.96   0.000   0.200   0.000    0.00
  17.800    5.47   -1.02    0.94   0.000   0.200   0.000    0.00
  17.850    5.44   -0.68    1.05   0.000   0.200   0.000    0.00
  17.900    5.43    1.27    0.75   0.000   0.200   0.000    0.00
  17.950    5.45    1.69    0.76   0.000   0.200   0.000    0.00
  18.000    5.44    0.85    0.70   0.000   0.200   0.000    0.00
  18.050    5.42    0.46    0.44   0.000   0.200   0.000    0.00
  18.100    5.51    0.65    0.70   0.000   0.200   0.000    0.00
  18.150    5.53   -0.24    0.80   0.000   0.200   0.000    0.00
  18.200    5.66    0.02    0.53   0.000   0.200   0.000    0.00
  18.250    5.53   -3.15    0.22   0.000   0.200   0.000    0.00
  18.300    5.46   -3.39    0.38   0.000   0.200   0.000    0.00
  18.350    5.68   -3.64    0.41   0.000   0.200   0.000    0.00
  18.400    5.72   -2.37    0.56   0.000   0.200   0.000    0.00
  18.450    5.53   -2.39    0.72   0.000   0.200   0.000    0.00
  18.500    5.46   -1.57    0.46   0.000   0.200   0.000    0.00
  18.550    5.61   -0.53    0.43   0.000   0.200   0.000    0.00
  18.600    5.58   -1.12    0.43   0.000   0.200   0.000    0.00
  18.650    5.21   -2.56    0.26   0.000   0.200   0.000    0.00
  18.700    5.36   -1.32    0.20   0.000   0.200   0.000    0.00
  18.750    5.43   -1.09   -0.03   0.000   0.200   0.000    0.00
  18.800    5.39   -0.13   -0.25   0.000   0.200   0.000    0.00
  18.850    5.60    0.19    0.02   0.000   0.200   0.000    0.00
  18.900    5.43    1.28    0.39   0.000   0.200   0.000    0.00
  18.950    5.62    1.32    0.26   0.000   0.200   0.000    0.00
  19.000    5.73    3.49    0.04   0.000   0.200   0.000    0.00
  19.050    5.59    2.35    0.40   0.000   0.200   0.000    0.00
  19.100    5.55    1.27    0.30   0.000   0.200   0.000    0.00
  19.150    5.74    1.84    0.29   0.000   0.200   0.000    0.00
  19.200    5.68    5.20    0.18   0.000   0.200   0.000    0.00
  19.250    5.78    5.39    0.28   0.000   0.200   0.000    0.00
  19.300    5.72    3.94    0.14   0.000   0.200   0.000    0.00
  19.350    5.61    6.28    0.12   0.000   0.200   0.000    0.00
  19.400    5.72    8.95    0.30   0.000   0.200   0.000    0.00
  19.450    5.82    6.15    0.52   0.000   0.200   0.000    0.00
  19.500    5.64    4.49    0.61   0.000   0.200   0.000    0.00
  19.550    5.89    5.11    0.66   0.000   0.200   0.000    0.00
  19.600    5.74   10.09    0.57   0.000   0.200   0.000    0.00
  19.650    5.93    7.71    0.43   0.000   0.200   0.000    0.00
  19.700    5.62    5.99    0.36   0.000   0.200   0.000    0.00
  19.750    5.35    9.40    0.10   0.000   0.200   0.000    0.00
  19.800    5.36   13.78    0.00   0.000   0.200   0.000    0.00
  19.850    5.56   13.77    0.15   0.000   0.200   0.000    0.00
  19.900    5.55   11.24    0.17   0.000   0.200   0.000    0.00
  19.950    5.51   10.42    0.40   0.000   0.200   0.000    0.00
  20.000    5.50    7.33    0.23   0.000   0.200   0.000    0.00
  20.050    5.53    6.74    0.08   0.000   0.200   0.000    0.00
  20.100    5.64    7.11    0.23   0.000   0.200   0.000    0.00
  20.150    5.68    8.26    0.14   0.000   0.200   0.000    0.00
  20.200    5.68    5.01    0.00   0.000   0.200   0.000    0.00
  20.250    5.92    6.46   -0.03   0.000   0.200   0.000    0.00
  20.300    5.86    9.82    0.27   0.000   0.200   0.000    0.00
  20.350    5.51    9.85    0.30   0.000   0.200   0.000    0.00
  20.400    5.41    9.11    0.46   0.000   0.200   0.000    0.00
  20.450    5.48    7.87    0.45   0.000   0.200   0.000    0.00
  20.500    5.60    7.40    0.53   0.000   0.200   0.000    0.00
  20.550    5.49    3.83    0.39   0.000   0.200   0.000    0.00
  20.600    5.64    3.07    0.35   0.000   0.200   0.000    0.00
  20.650    5.76    2.55    0.39   0.000   0.200   0.000    0.00
  20.700    5.57    5.05    0.69   0.000   0.200   0.000    0.00
  20.750    5.44    6.95    0.92   0.000   0.200   0.000    0.00
  20.800    5.45    3.13    0.62   0.000   0.200   0.000    0.00
  20.850    5.41    4.85    0.77   0.000   0.200   0.000    0.00
  20.900    5.15    4.07    0.55   0.000   0.200   0.000    0.00
  20.950    5.11    1.01    0.45   0.000   0.200   0.000    0.00
  21.000    4.82    0.35    0.46   0.000   0.200   0.000    0.00
  21.050    4.74    0.12    0.45   0.000   0.200   0.000    0.00
  21.100    4.97    0.67    0.25   0.000   0.200   0.000    0.00
  21.150    5.06    4.27    0.51   0.000   0.200   0.000    0.00
  21.200    5.16    3.08    0.52   0.000   0.200   0.000    0.00
  21.250    5.08    2.09    0.51   0.000   0.200   0.000    0.00
  21.300    5.21    1.97    0.32   0.000   0.200   0.000    0.00
  21.350    5.08    0.78    0.50   0.000   0.200   0.000    0.00
  21.400    5.06    2.99    0.47   0.000   0.200   0.000    0.00
  21.450    4.98    3.01    0.24   0.000   0.200   0.000    0.00
  21.500    4.95    3.28    0.04   0.000   0.200   0.000    0.00
  21.550    4.85    4.78   -0.06   0.000   0.200   0.000    0.00
  21.600    4.82    4.20    0.18   0.000   0.200   0.000    0.00
  21.650    4.92    3.77    0.15   0.000   0.200   0.000    0.00
  21.700    4.67    3.40   -0.17   0.000   0.200   0.000    0.00
  21.750    4.55    1.87   -0.31   0.000   0.200   0.000    0.00
  21.800    4.74   -2.56   -0.31   0.000   0.200   0.000    0.00
  21.850    4.57   -5.43   -0.39   0.000   0.200   0.000    0.00
  21.900    4.41   -1.28   -0.44   0.000   0.200   0.000    0.00
  21.950    4.20   -0.75   -0.46   0.000   0.200   0.000    0.00
  22.000    4.01   -2.38   -0.60   0.000   0.200   0.000    0.00
  22.050    4.39    0.87   -0.66   0.000   0.200   0.000    0.00
  22.100    4.46   -3.58   -0.83   0.000   0.200   0.000    0.00
  22.150    4.52   -3.39   -0.80   0.000   0.200   0.000    0.00
  22.200    4.55   -2.24   -0.59   0.000   0.200   0.000    0.00
  22.250    4.38   -0.47   -0.59   0.000   0.200   0.000    0.00
  22.300    4.44   -3.64   -0.69   0.000   0.200   0.000    0.00
  22.350    4.38   -2.95   -0.60   0.000   0.200   0.000    0.00