! This hub-height wind-speed file was generated by TurbSim (v1.06.00, 21-Sep-2012) on 16-Jun-2018 at 18:36:36.
!
! The requested statistics for this data were:
!    Mean Total Wind Speed =   21.000 m/s
!    Turbulence Intensity  =   18.325%
!
!   Time  HorSpd  WndDir  VerSpd  HorShr  VerShr  LnVShr  GstSpd
!  (sec)   (m/s)   (deg)   (m/s)     (-)     (-)     (-)   (m/s)
   0.000   24.06  -16.44    0.21   0.000   0.200   0.000    0.00
   0.050   24.31  -18.03   -0.02   0.000   0.200   0.000    0.00
   0.100   25.74  -18.47   -0.37   0.000   0.200   0.000    0.00
   0.150   25.77  -16.02   -0.13   0.000   0.200   0.000    0.00
   0.200   25.58  -14.99    0.40   0.000   0.200   0.000    0.00
   0.250   25.93  -17.06    0.65   0.000   0.200   0.000    0.00
   0.300   25.32  -16.82   -0.47   0.000   0.200   0.000    0.00
   0.350   25.49  -17.32    0.45   0.000   0.200   0.000    0.00
   0.400   25.83  -13.76   -0.40   0.000   0.200   0.000    0.00
   0.450   27.04  -11.27    0.46   0.000   0.200   0.000    0.00
   0.500   26.84  -11.93    2.06   0.000   0.200   0.000    0.00
   0.550   26.22   -9.93    2.44   0.000   0.200   0.000    0.00
   0.600   25.78  -12.96    1.75   0.000   0.200   0.000    0.00
   0.650   26.65  -12.51    0.27   0.000   0.200   0.000    0.00
   0.700   25.75   -9.64   -0.11   0.000   0.200   0.000    0.00
   0.750   25.03  -10.03    0.21   0.000   0.200   0.000    0.00
   0.800   24.06   -8.27   -0.99   0.000   0.200   0.000    0.00
   0.850   23.61   -6.53   -1.56   0.000   0.200   0.000    0.00
   0.900   23.61   -6.45   -1.99   0.000   0.200   0.000    0.00
   0.950   23.80   -8.39   -1.68   0.000   0.200   0.000    0.00
   1.000   24.36   -5.86   -1.22   0.000   0.200   0.000    0.00
   1.050   23.00   -7.31   -1.81   0.000   0.200   0.000    0.00
   1.100   23.02   -6.18   -2.05   0.000   0.200   0.000    0.00
   1.150   21.21   -7.17   -2.11   0.000   0.200   0.000    0.00
   1.200   20.84   -8.24   -1.20   0.000   0.200   0.000    0.00
   1.250   21.11   -7.60   -0.18   0.000   0.200   0.000    0.00
   1.300   21.46   -9.59   -0.84   0.000   0.200   0.000    0.00
   1.350   22.39   -9.60   -0.02   0.000   0.200   0.000    0.00
   1.400   22.61   -8.81    0.12   0.000   0.200   0.000    0.00
   1.450   22.19   -9.90   -1.06   0.000   0.200   0.000    0.00
   1.500   21.48  -11.73   -0.83   0.000   0.200   0.000    0.00
   1.550   21.87  -11.78    0.58   0.000   0.200   0.000    0.00
   1.600   21.30  -12.63    0.81   0.000   0.200   0.000    0.00
   1.650   21.64   -9.78    1.61   0.000   0.200   0.000    0.00
   1.700   20.74  -10.22    1.85   0.000   0.200   0.000    0.00
   1.750   20.02  -11.77    1.77   0.000   0.200   0.000    0.00
   1.800   19.78  -14.83    2.53   0.000   0.200   0.000    0.00
   1.850   19.89  -16.46    2.53   0.000   0.200   0.000    0.00
   1.900   20.13  -16.29    1.19   0.000   0.200   0.000    0.00
   1.950   21.23  -16.50    1.36   0.000   0.200   0.000    0.00
   2.000   21.13  -15.53   -0.16   0.000   0.200   0.000    0.00
   2.050   20.35  -12.79   -0.20   0.000   0.200   0.000    0.00
   2.100   21.07  -12.55    0.25   0.000   0.200   0.000    0.00
   2.150   22.21  -14.38   -0.31   0.000   0.200   0.000    0.00
   2.200   21.66  -11.06   -0.82   0.000   0.200   0.000    0.00
   2.250   20.94  -11.73   -2.55   0.000   0.200   0.000    0.00
   2.300   20.93  -15.73   -2.67   0.000   0.200   0.000    0.00
   2.350   20.80  -15.03   -1.80   0.000   0.200   0.000    0.00
   2.400   20.20  -13.09   -1.92   0.000   0.200   0.000    0.00
   2.450   20.59  -12.72   -3.05   0.000   0.200   0.000    0.00
   2.500   19.55   -9.09   -3.72   0.000   0.200   0.000    0.00
   2.550   19.95  -13.78   -4.34   0.000   0.200   0.000    0.00
   2.600   20.45  -12.75   -3.39   0.000   0.200   0.000    0.00
   2.650   19.50  -13.96   -2.67   0.000   0.200   0.000    0.00
   2.700   20.66  -10.68   -0.38   0.000   0.200   0.000    0.00
   2.750   20.85   -6.12   -0.33   0.000   0.200   0.000    0.00
   2.800   21.38   -3.31   -1.04   0.000   0.200   0.000    0.00
   2.850   21.89   -6.36   -0.79   0.000   0.200   0.000    0.00
   2.900   22.81   -5.50   -1.49   0.000   0.200   0.000    0.00
   2.950   23.05   -6.96    0.15   0.000   0.200   0.000    0.00
   3.000   23.78   -8.24   -1.34   0.000   0.200   0.000    0.00
   3.050   23.29   -5.93   -1.46   0.000   0.200   0.000    0.00
   3.100   23.55   -3.75    0.10   0.000   0.200   0.000    0.00
   3.150   23.22   -6.32   -0.08   0.000   0.200   0.000    0.00
   3.200   23.61   -6.45    0.39   0.000   0.200   0.000    0.00
   3.250   23.48   -2.89    0.74   0.000   0.200   0.000    0.00
   3.300   22.50   -3.08   -0.21   0.000   0.200   0.000    0.00
   3.350   22.32   -5.06    1.87   0.000   0.200   0.000    0.00
   3.400   23.32   -6.46    1.29   0.000   0.200   0.000    0.00
   3.450   23.69   -4.92   -0.16   0.000   0.200   0.000    0.00
   3.500   23.80   -4.80    0.84   0.000   0.200   0.000    0.00
   3.550   23.32   -5.96    0.38   0.000   0.200   0.000    0.00
   3.600   23.11   -6.81    1.04   0.000   0.200   0.000    0.00
   3.650   22.74   -9.33    1.77   0.000   0.200   0.000    0.00
   3.700   21.14   -9.50    0.56   0.000   0.200   0.000    0.00
   3.750   22.49  -10.59    1.49   0.000   0.200   0.000    0.00
   3.800   23.97  -10.68    1.13   0.000   0.200   0.000    0.00
   3.850   23.91   -8.32    0.50   0.000   0.200   0.000    0.00
   3.900   24.06   -9.25    0.24   0.000   0.200   0.000    0.00
   3.950   24.92   -9.70    0.85   0.000   0.200   0.000    0.00
   4.000   23.93  -10.52    0.55   0.000   0.200   0.000    0.00
   4.050   22.93  -10.92    1.19   0.000   0.200   0.000    0.00
   4.100   24.08  -15.38    3.59   0.000   0.200   0.000    0.00
   4.150   24.71  -19.14    2.96   0.000   0.200   0.000    0.00
   4.200   25.27  -20.62    2.09   0.000   0.200   0.000    0.00
   4.250   26.13  -20.60    2.48   0.000   0.200   0.000    0.00
   4.300   27.28  -21.09    1.81   0.000   0.200   0.000    0.00
   4.350   28.26  -18.63    1.90   0.000   0.200   0.000    0.00
   4.400   27.84  -18.65    2.49   0.000   0.200   0.000    0.00
   4.450   26.42  -18.38    2.23   0.000   0.200   0.000    0.00
   4.500   26.16  -14.37    2.25   0.000   0.200   0.000    0.00
   4.550   25.79  -11.02    1.64   0.000   0.200   0.000    0.00
   4.600   25.62   -9.98   -0.20   0.000   0.200   0.000    0.00
   4.650   27.36  -11.62   -0.83   0.000   0.200   0.000    0.00
   4.700   27.40  -12.70    0.00   0.000   0.200   0.000    0.00
   4.750   27.28  -13.77   -0.17   0.000   0.200   0.000    0.00
   4.800   26.21  -11.89   -0.58   0.000   0.200   0.000    0.00
   4.850   25.22   -8.90    0.67   0.000   0.200   0.000    0.00
   4.900   26.31  -11.93    1.14   0.000   0.200   0.000    0.00
   4.950   26.10  -13.63    0.57   0.000   0.200   0.000    0.00
   5.000   24.80  -10.62    1.41   0.000   0.200   0.000    0.00
   5.050   24.49  -11.65    1.76   0.000   0.200   0.000    0.00
   5.100   25.02  -11.26    1.60   0.000   0.200   0.000    0.00
   5.150   25.66  -10.15    1.90   0.000   0.200   0.000    0.00
   5.200   25.76  -11.68    1.62   0.000   0.200   0.000    0.00
   5.250   27.64  -11.62    2.07   0.000   0.200   0.000    0.00
   5.300   27.90  -10.88    0.40   0.000   0.200   0.000    0.00
   5.350   26.21  -12.54    1.48   0.000   0.200   0.000    0.00
   5.400   26.07  -12.33    0.39   0.000   0.200   0.000    0.00
   5.450   26.32  -12.06    1.70   0.000   0.200   0.000    0.00
   5.500   25.70  -13.11    1.63   0.000   0.200   0.000    0.00
   5.550   24.81  -12.09    1.56   0.000   0.200   0.000    0.00
   5.600   24.71  -11.63    2.64   0.000   0.200   0.000    0.00
   5.650   24.07  -15.28    2.29   0.000   0.200   0.000    0.00
   5.700   23.09  -16.87    2.55   0.000   0.200   0.000    0.00
   5.750   22.86  -18.21    2.84   0.000   0.200   0.000    0.00
   5.800   23.67  -18.73    2.17   0.000   0.200   0.000    0.00
   5.850   24.21  -20.45    1.73   0.000   0.200   0.000    0.00
   5.900   23.42  -18.78    3.09   0.000   0.200   0.000    0.00
   5.950   23.64  -19.60    2.79   0.000   0.200   0.000    0.00
   6.000   24.01  -17.67    1.86   0.000   0.200   0.000    0.00
   6.050   23.68  -18.05    3.26   0.000   0.200   0.000    0.00
   6.100   24.18  -16.10    0.73   0.000   0.200   0.000    0.00
   6.150   24.57  -18.19    0.54   0.000   0.200   0.000    0.00
   6.200   24.40  -16.91    1.12   0.000   0.200   0.000    0.00
   6.250   24.51  -18.36    1.54   0.000   0.200   0.000    0.00
   6.300   23.50  -22.79    1.51   0.000   0.200   0.000    0.00
   6.350   23.05  -20.76    1.57   0.000   0.200   0.000    0.00
   6.400   24.20  -18.47    2.17   0.000   0.200   0.000    0.00
   6.450   24.39  -19.22    2.46   0.000   0.200   0.000    0.00
   6.500   24.89  -21.16    0.42   0.000   0.200   0.000    0.00
   6.550   24.45  -20.86   -0.54   0.000   0.200   0.000    0.00
   6.600   24.41  -19.57    0.45   0.000   0.200   0.000    0.00
   6.650   23.44  -14.45    0.25   0.000   0.200   0.000    0.00
   6.700   22.49  -10.43   -1.00   0.000   0.200   0.000    0.00
   6.750   23.58  -10.54   -2.25   0.000   0.200   0.000    0.00
   6.800   24.67   -8.22   -0.62   0.000   0.200   0.000    0.00
   6.850   26.08   -6.69   -1.31   0.000   0.200   0.000    0.00
   6.900   24.59   -7.38   -2.01   0.000   0.200   0.000    0.00
   6.950   24.39   -8.36   -2.07   0.000   0.200   0.000    0.00
   7.000   23.80  -10.30   -0.68   0.000   0.200   0.000    0.00
   7.050   23.36  -10.61   -1.05   0.000   0.200   0.000    0.00
   7.100   24.25   -9.43   -1.68   0.000   0.200   0.000    0.00
   7.150   23.90  -10.97   -0.84   0.000   0.200   0.000    0.00
   7.200   23.53   -8.28   -0.31   0.000   0.200   0.000    0.00
   7.250   23.70   -8.31   -0.75   0.000   0.200   0.000    0.00
   7.300   22.01   -5.58   -1.18   0.000   0.200   0.000    0.00
   7.350   21.32   -4.27   -1.65   0.000   0.200   0.000    0.00
   7.400   21.90   -4.24   -1.20   0.000   0.200   0.000    0.00
   7.450   23.21   -1.61   -0.94   0.000   0.200   0.000    0.00
   7.500   23.10   -5.96   -1.10   0.000   0.200   0.000    0.00
   7.550   23.08   -9.49   -1.83   0.000   0.200   0.000    0.00
   7.600   22.42   -8.11   -1.99   0.000   0.200   0.000    0.00
   7.650   21.96   -6.70   -0.48   0.000   0.200   0.000    0.00
   7.700   23.47  -10.59   -0.17   0.000   0.200   0.000    0.00
   7.750   22.78   -6.65    0.12   0.000   0.200   0.000    0.00
   7.800   22.48   -4.58    0.14   0.000   0.200   0.000    0.00
   7.850   22.81   -5.14    0.23   0.000   0.200   0.000    0.00
   7.900   22.74   -2.02   -0.07   0.000   0.200   0.000    0.00
   7.950   23.21    0.00    1.50   0.000   0.200   0.000    0.00
   8.000   23.08    2.27    1.93   0.000   0.200   0.000    0.00
   8.050   23.29    3.31    0.80   0.000   0.200   0.000    0.00
   8.100   22.47   -0.17    0.41   0.000   0.200   0.000    0.00
   8.150   22.14    0.76    0.34   0.000   0.200   0.000    0.00
   8.200   22.70   -2.39    1.22   0.000   0.200   0.000    0.00
   8.250   23.30   -1.79   -1.16   0.000   0.200   0.000    0.00
   8.300   23.87    1.77   -1.52   0.000   0.200   0.000    0.00
   8.350   22.62    2.74   -1.00   0.000   0.200   0.000    0.00
   8.400   21.89    1.12   -0.92   0.000   0.200   0.000    0.00
   8.450   21.61   -0.98   -0.25   0.000   0.200   0.000    0.00
   8.500   21.77    0.14    0.02   0.000   0.200   0.000    0.00
   8.550   21.58   -5.17    0.06   0.000   0.200   0.000    0.00
   8.600   23.26   -0.72    1.30   0.000   0.200   0.000    0.00
   8.650   25.05   -0.42    2.54   0.000   0.200   0.000    0.00
   8.700   25.83   -5.87    1.30   0.000   0.200   0.000    0.00
   8.750   26.91   -5.90    0.65   0.000   0.200   0.000    0.00
   8.800   26.97   -5.29    0.81   0.000   0.200   0.000    0.00
   8.850   26.76   -4.85    1.90   0.000   0.200   0.000    0.00
   8.900   26.19   -6.42    3.50   0.000   0.200   0.000    0.00
   8.950   25.38   -3.97    2.47   0.000   0.200   0.000    0.00
   9.000   25.63   -5.06    2.51   0.000   0.200   0.000    0.00
   9.050   25.21   -5.32    3.05   0.000   0.200   0.000    0.00
   9.100   25.06   -5.74    2.42   0.000   0.200   0.000    0.00
   9.150   26.22   -4.52    2.95   0.000   0.200   0.000    0.00
   9.200   25.70   -3.57    2.76   0.000   0.200   0.000    0.00
   9.250   25.15   -5.81    2.55   0.000   0.200   0.000    0.00
   9.300   25.81   -3.95    2.09   0.000   0.200   0.000    0.00
   9.350   25.30   -4.78    2.06   0.000   0.200   0.000    0.00
   9.400   25.13   -1.46    1.42   0.000   0.200   0.000    0.00
   9.450   25.33    0.00   -0.02   0.000   0.200   0.000    0.00
   9.500   25.26    2.07   -0.21   0.000   0.200   0.000    0.00
   9.550   25.50    3.04   -0.44   0.000   0.200   0.000    0.00
   9.600   24.66    2.17   -0.81   0.000   0.200   0.000    0.00
   9.650   24.59    1.06   -1.18   0.000   0.200   0.000    0.00
   9.700   25.48    2.05   -0.94   0.000   0.200   0.000    0.00
   9.750   25.23   -0.37    0.00   0.000   0.200   0.000    0.00
   9.800   25.14    1.90    0.64   0.000   0.200   0.000    0.00
   9.850   26.47    1.64   -0.37   0.000   0.200   0.000    0.00
   9.900   25.07    0.54   -0.94   0.000   0.200   0.000    0.00
   9.950   24.56    0.95   -0.57   0.000   0.200   0.000    0.00
  10.000   23.90    3.36   -2.01   0.000   0.200   0.000    0.00
  10.050   24.44    2.27   -2.06   0.000   0.200   0.000    0.00
  10.100   25.19   -0.31   -1.98   0.000   0.200   0.000    0.00
  10.150   25.78   -0.98   -2.90   0.000   0.200   0.000    0.00
  10.200   24.77   -3.87   -1.79   0.000   0.200   0.000    0.00
  10.250   24.22   -4.69   -1.34   0.000   0.200   0.000    0.00
  10.300   23.90   -5.18   -1.62   0.000   0.200   0.000    0.00
  10.350   23.91   -5.36   -1.10   0.000   0.200   0.000    0.00
  10.400   23.44   -1.63   -1.46   0.000   0.200   0.000    0.00
  10.450   23.25    0.64   -1.10   0.000   0.200   0.000    0.00
  10.500   23.64    0.77   -1.75   0.000   0.200   0.000    0.00
  10.550   23.23   -1.06   -0.85   0.000   0.200   0.000    0.00
  10.600   22.25    1.30   -1.68   0.000   0.200   0.000    0.00
  10.650   20.88    1.85   -0.99   0.000   0.200   0.000    0.00
  10.700   20.62   -1.41   -1.12   0.000   0.200   0.000    0.00
  10.750   20.79   -1.65   -1.23   0.000   0.200   0.000    0.00
  10.800   20.68   -5.94   -1.16   0.000   0.200   0.000    0.00
  10.850   20.43   -2.22   -0.99   0.000   0.200   0.000    0.00
  10.900   20.14    0.67   -1.14   0.000   0.200   0.000    0.00
  10.950   19.89   -1.96   -1.93   0.000   0.200   0.000    0.00
  11.000   20.26   -7.02   -1.25   0.000   0.200   0.000    0.00
  11.050   20.20   -4.48   -1.49   0.000   0.200   0.000    0.00
  11.100   18.66   -7.14    0.05   0.000   0.200   0.000    0.00
  11.150   18.84  -10.96    0.24   0.000   0.200   0.000    0.00
  11.200   18.70   -9.05   -2.25   0.000   0.200   0.000    0.00
  11.250   18.62   -7.62   -0.85   0.000   0.200   0.000    0.00
  11.300   18.99   -5.38    0.64   0.000   0.200   0.000    0.00
  11.350   19.88   -4.54   -0.32   0.000   0.200   0.000    0.00
  11.400   20.02   -0.91    0.41   0.000   0.200   0.000    0.00
  11.450   18.10   -3.63    0.18   0.000   0.200   0.000    0.00
  11.500   17.44   -3.30    0.66   0.000   0.200   0.000    0.00
  11.550   18.54   -3.90    0.82   0.000   0.200   0.000    0.00
  11.600   19.23   -6.97    1.15   0.000   0.200   0.000    0.00
  11.650   18.89   -5.39    0.95   0.000   0.200   0.000    0.00
  11.700   20.19   -3.34    1.18   0.000   0.200   0.000    0.00
  11.750   20.20   -0.06    0.56   0.000   0.200   0.000    0.00
  11.800   19.51   -1.22   -0.70   0.000   0.200   0.000    0.00
  11.850   18.77    0.25   -1.35   0.000   0.200   0.000    0.00
  11.900   18.50    1.34    0.16   0.000   0.200   0.000    0.00
  11.950   16.94   -0.48    0.72   0.000   0.200   0.000    0.00
  12.000   18.19    1.85   -1.02   0.000   0.200   0.000    0.00
  12.050   18.74    0.28   -1.02   0.000   0.200   0.000    0.00
  12.100   19.05    0.26   -1.19   0.000   0.200   0.000    0.00
  12.150   18.50   -0.77   -1.34   0.000   0.200   0.000    0.00
  12.200   19.05   -3.71   -0.84   0.000   0.200   0.000    0.00
  12.250   19.28    0.55   -0.88   0.000   0.200   0.000    0.00
  12.300   21.44   -1.78   -1.40   0.000   0.200   0.000    0.00
  12.350   21.57   -3.23   -1.86   0.000   0.200   0.000    0.00
  12.400   21.50   -0.35   -1.83   0.000   0.200   0.000    0.00
  12.450   21.45   -0.22   -1.55   0.000   0.200   0.000    0.00
  12.500   21.64    1.22   -0.49   0.000   0.200   0.000    0.00
  12.550   20.96    1.61    0.47   0.000   0.200   0.000    0.00
  12.600   19.70   -1.70    2.19   0.000   0.200   0.000    0.00
  12.650   19.69   -5.72    2.02   0.000   0.200   0.000    0.00
  12.700   19.07   -6.82    1.77   0.000   0.200   0.000    0.00
  12.750   19.49   -4.97    1.30   0.000   0.200   0.000    0.00
  12.800   18.83   -6.33    2.53   0.000   0.200   0.000    0.00
  12.850   18.83   -5.67    2.95   0.000   0.200   0.000    0.00
  12.900   17.67   -8.56    2.79   0.000   0.200   0.000    0.00
  12.950   18.11  -10.62    2.17   0.000   0.200   0.000    0.00
  13.000   19.61   -9.11    1.27   0.000   0.200   0.000    0.00
  13.050   20.86   -9.41    0.79   0.000   0.200   0.000    0.00
  13.100   20.74   -6.65   -1.06   0.000   0.200   0.000    0.00
  13.150   20.13   -5.17   -0.12   0.000   0.200   0.000    0.00
  13.200   18.69   -3.88    1.26   0.000   0.200   0.000    0.00
  13.250   19.58   -3.13    2.82   0.000   0.200   0.000    0.00
  13.300   21.24   -3.92    1.64   0.000   0.200   0.000    0.00
  13.350   20.98   -1.99    1.33   0.000   0.200   0.000    0.00
  13.400   21.74    1.82    2.09   0.000   0.200   0.000    0.00
  13.450   21.90    1.34    2.04   0.000   0.200   0.000    0.00
  13.500   21.07   -0.93    2.45   0.000   0.200   0.000    0.00
  13.550   19.34   -1.18    0.59   0.000   0.200   0.000    0.00
  13.600   20.21   -4.56   -0.19   0.000   0.200   0.000    0.00
  13.650   20.00   -6.61    0.56   0.000   0.200   0.000    0.00
  13.700   19.29  -10.67    0.61   0.000   0.200   0.000    0.00
  13.750   19.36  -13.43    0.97   0.000   0.200   0.000    0.00
  13.800   18.92   -8.60   -0.73   0.000   0.200   0.000    0.00
  13.850   18.25   -8.64   -0.35   0.000   0.200   0.000    0.00
  13.900   17.86   -9.74   -0.09   0.000   0.200   0.000    0.00
  13.950   18.40  -11.30   -0.65   0.000   0.200   0.000    0.00
  14.000   18.99  -11.22   -0.27   0.000   0.200   0.000    0.00
  14.050   19.01  -11.29   -1.04   0.000   0.200   0.000    0.00
  14.100   18.15   -6.41   -1.25   0.000   0.200   0.000    0.00
  14.150   18.42   -3.51   -1.34   0.000   0.200   0.000    0.00
  14.200   18.45   -2.98    0.41   0.000   0.200   0.000    0.00
  14.250   18.10    0.20   -0.12   0.000   0.200   0.000    0.00
  14.300   19.11    1.96    0.72   0.000   0.200   0.000    0.00
  14.350   20.05    0.92    0.14   0.000   0.200   0.000    0.00
  14.400   20.27   -0.98   -0.40   0.000   0.200   0.000    0.00
  14.450   20.74    3.54    0.69   0.000   0.200   0.000    0.00
  14.500   20.17    6.98    0.99   0.000   0.200   0.000    0.00
  14.550   20.63    7.30    0.22   0.000   0.200   0.000    0.00
  14.600   20.71    5.11    0.62   0.000   0.200   0.000    0.00
  14.650   20.53    5.99    0.24   0.000   0.200   0.000    0.00
  14.700   20.80    1.25    0.80   0.000   0.200   0.000    0.00
  14.750   20.71    1.80    0.59   0.000   0.200   0.000    0.00
  14.800   20.78   -1.11    0.20   0.000   0.200   0.000    0.00
  14.850   21.62   -2.24    0.19   0.000   0.200   0.000    0.00
  14.900   21.15   -4.09    0.40   0.000   0.200   0.000    0.00
  14.950   21.27   -2.82    0.77   0.000   0.200   0.000    0.00
  15.000   19.78   -4.47    0.95   0.000   0.200   0.000    0.00
  15.050   20.10   -0.05   -0.26   0.000   0.200   0.000    0.00
  15.100   20.42   -2.46   -0.96   0.000   0.200   0.000    0.00
  15.150   20.73   -3.65   -2.11   0.000   0.200   0.000    0.00
  15.200   20.55   -1.97   -2.19   0.000   0.200   0.000    0.00
  15.250   20.10   -3.16   -1.79   0.000   0.200   0.000    0.00
  15.300   19.86   -0.47   -0.97   0.000   0.200   0.000    0.00
  15.350   18.47   -3.91   -1.32   0.000   0.200   0.000    0.00
  15.400   19.47   -5.94   -1.37   0.000   0.200   0.000    0.00
  15.450   20.14   -2.97   -0.76   0.000   0.200   0.000    0.00
  15.500   19.32   -1.45    0.46   0.000   0.200   0.000    0.00
  15.550   19.31   -5.76   -0.10   0.000   0.200   0.000    0.00
  15.600   19.34   -2.30   -0.54   0.000   0.200   0.000    0.00
  15.650   20.33   -3.88   -0.71   0.000   0.200   0.000    0.00
  15.700   20.46    0.38   -0.72   0.000   0.200   0.000    0.00
  15.750   20.77    2.44   -1.02   0.000   0.200   0.000    0.00
  15.800   20.30    3.09   -1.15   0.000   0.200   0.000    0.00
  15.850   19.41    5.83   -1.85   0.000   0.200   0.000    0.00
  15.900   19.58    5.23   -1.70   0.000   0.200   0.000    0.00
  15.950   20.56    8.59   -1.15   0.000   0.200   0.000    0.00
  16.000   20.93    9.14   -1.11   0.000   0.200   0.000    0.00
  16.050   20.53    6.87   -1.00   0.000   0.200   0.000    0.00
  16.100   19.99    8.00   -0.83   0.000   0.200   0.000    0.00
  16.150   20.60    4.93    0.67   0.000   0.200   0.000    0.00
  16.200   21.45    0.59    0.14   0.000   0.200   0.000    0.00
  16.250   22.25    1.80   -1.29   0.000   0.200   0.000    0.00
  16.300   21.83    0.19   -1.21   0.000   0.200   0.000    0.00
  16.350   22.53   -1.32   -1.85   0.000   0.200   0.000    0.00
  16.400   22.51   -4.92   -2.37   0.000   0.200   0.000    0.00
  16.450   23.23   -6.30   -1.46   0.000   0.200   0.000    0.00
  16.500   23.29   -5.54   -1.18   0.000   0.200   0.000    0.00
  16.550   23.93   -2.55   -1.38   0.000   0.200   0.000    0.00
  16.600   24.61   -4.53   -1.58   0.000   0.200   0.000    0.00
  16.650   23.99   -4.10   -1.91   0.000   0.200   0.000    0.00
  16.700   23.45   -3.05   -3.04   0.000   0.200   0.000    0.00
  16.750   22.87   -2.84   -3.25   0.000   0.200   0.000    0.00
  16.800   21.69   -3.54   -2.20   0.000   0.200   0.000    0.00
  16.850   21.79   -2.82   -3.57   0.000   0.200   0.000    0.00
  16.900   22.21   -4.76   -3.87   0.000   0.200   0.000    0.00
  16.950   22.54   -3.35   -2.76   0.000   0.200   0.000    0.00
  17.000   23.62    0.44   -3.31   0.000   0.200   0.000    0.00
  17.050   22.93    0.34   -4.14   0.000   0.200   0.000    0.00
  17.100   22.56    0.96   -3.36   0.000   0.200   0.000    0.00
  17.150   23.15    3.44   -2.06   0.000   0.200   0.000    0.00
  17.200   23.47    1.54   -1.89   0.000   0.200   0.000    0.00
  17.250   22.95   -1.88   -1.65   0.000   0.200   0.000    0.00
  17.300   21.76   -1.25   -0.63   0.000   0.200   0.000    0.00
  17.350   20.93    0.35    0.23   0.000   0.200   0.000    0.00
  17.400   20.85    2.17    1.31   0.000   0.200   0.000    0.00
  17.450   21.64    1.53    1.69   0.000   0.200   0.000    0.00
  17.500   21.45    3.72    0.68   0.000   0.200   0.000    0.00
  17.550   22.07    3.35    0.21   0.000   0.200   0.000    0.00
  17.600   22.50    7.16    0.29   0.000   0.200   0.000    0.00
  17.650   21.96   11.86   -0.03   0.000   0.200   0.000    0.00
  17.700   21.98   12.98   -0.71   0.000   0.200   0.000    0.00
  17.750   22.04   12.88   -0.85   0.000   0.200   0.000    0.00
  17.800   22.20   10.40   -0.95   0.000   0.200   0.000    0.00
  17.850   21.69    8.25    0.17   0.000   0.200   0.000    0.00
  17.900   22.04    6.20    1.48   0.000   0.200   0.000    0.00
  17.950   20.90    6.76    0.79   0.000   0.200   0.000    0.00
  18.000   21.31   11.35    0.92   0.000   0.200   0.000    0.00
  18.050   21.40   12.47    1.12   0.000   0.200   0.000    0.00
  18.100   20.53   12.63    1.14   0.000   0.200   0.000    0.00
  18.150   22.23   14.25    0.64   0.000   0.200   0.000    0.00
  18.200   22.06   12.43    0.12   0.000   0.200   0.000    0.00
  18.250   22.86    9.88   -0.91   0.000   0.200   0.000    0.00
  18.300   24.17   11.72    0.01   0.000   0.200   0.000    0.00
  18.350   22.95   13.48   -0.55   0.000   0.200   0.000    0.00
  18.400   22.76   10.19   -1.50   0.000   0.200   0.000    0.00
  18.450   22.13    6.25   -1.78   0.000   0.200   0.000    0.00
  18.500   22.01    9.95   -0.72   0.000   0.200   0.000    0.00
  18.550   22.38    8.33   -0.86   0.000   0.200   0.000    0.00
  18.600   22.71    9.14   -1.62   0.000   0.200   0.000    0.00
  18.650   22.88    8.99   -0.50   0.000   0.200   0.000    0.00
  18.700   22.32    6.47    0.85   0.000   0.200   0.000    0.00
  18.750   21.89    5.58    0.31   0.000   0.200   0.000    0.00
  18.800   21.21    7.68    0.18   0.000   0.200   0.000    0.00
  18.850   21.40    4.11    1.87   0.000   0.200   0.000    0.00
  18.900   22.60    5.93    1.74   0.000   0.200   0.000    0.00
  18.950   22.83    9.82    1.07   0.000   0.200   0.000    0.00
  19.000   22.88    8.21    1.17   0.000   0.200   0.000    0.00
  19.050   22.76    8.90    1.23   0.000   0.200   0.000    0.00
  19.100   22.33   10.01    2.60   0.000   0.200   0.000    0.00
  19.150   23.03    5.93    1.66   0.000   0.200   0.000    0.00
  19.200   23.57    7.31    0.96   0.000   0.200   0.000    0.00
  19.250   23.92    5.51    0.51   0.000   0.200   0.000    0.00
  19.300   23.67    5.76    0.43   0.000   0.200   0.000    0.00
  19.350   22.69    4.15    0.00   0.000   0.200   0.000    0.00
  19.400   22.69   -1.81   -0.63   0.000   0.200   0.000    0.00
  19.450   21.83    1.16   -1.26   0.000   0.200   0.000    0.00
  19.500   20.77    1.64   -2.01   0.000   0.200   0.000    0.00
  19.550   21.51   -1.24   -2.19   0.000   0.200   0.000    0.00
  19.600   21.62   -1.08   -1.31   0.000   0.200   0.000    0.00
  19.650   22.68   -2.58   -1.55   0.000   0.200   0.000    0.00
  19.700   21.84   -1.52   -1.18   0.000   0.200   0.000    0.00
  19.750   20.76    1.25    0.61   0.000   0.200   0.000    0.00
  19.800   20.13   -0.93    1.03   0.000   0.200   0.000    0.00
  19.850   20.28   -0.20    0.91   0.000   0.200   0.000    0.00
  19.900   19.90    0.61    0.82   0.000   0.200   0.000    0.00
  19.950   20.31    1.99    1.47   0.000   0.200   0.000    0.00
  20.000   19.92    1.94   -0.08   0.000   0.200   0.000    0.00
  20.050   20.74   -1.52    0.67   0.000   0.200   0.000    0.00
  20.100   20.51   -2.40    2.15   0.000   0.200   0.000    0.00
  20.150   20.26   -0.67    2.17   0.000   0.200   0.000    0.00
  20.200   19.79    4.35    4.16   0.000   0.200   0.000    0.00
  20.250   19.94    3.02    4.67   0.000   0.200   0.000    0.00
  20.300   20.01   -0.53    3.07   0.000   0.200   0.000    0.00
  20.350   20.16    3.87    2.32   0.000   0.200   0.000    0.00
  20.400   19.84    3.59    1.85   0.000   0.200   0.000    0.00
  20.450   18.35    5.42    2.86   0.000   0.200   0.000    0.00
  20.500   17.86    5.14    2.72   0.000   0.200   0.000    0.00
  20.550   17.62    0.32    2.91   0.000   0.200   0.000    0.00
  20.600   16.55   -3.01    2.13   0.000   0.200   0.000    0.00
  20.650   16.35   -2.43    2.51   0.000   0.200   0.000    0.00
  20.700   17.31   -3.38    2.51   0.000   0.200   0.000    0.00
  20.750   17.39   -5.50    2.68   0.000   0.200   0.000    0.00
  20.800   18.11   -5.09    2.26   0.000   0.200   0.000    0.00
  20.850   18.68   -5.60    1.17   0.000   0.200   0.000    0.00
  20.900   18.48   -9.86    0.77   0.000   0.200   0.000    0.00
  20.950   19.29   -8.81    1.00   0.000   0.200   0.000    0.00
  21.000   20.06   -5.13    2.25   0.000   0.200   0.000    0.00
  21.050   21.76   -4.70    2.03   0.000   0.200   0.000    0.00
  21.100   20.39   -4.34    0.52   0.000   0.200   0.000    0.00
  21.150   19.76   -1.02    0.40   0.000   0.200   0.000    0.00
  21.200   19.82   -0.02    0.87   0.000   0.200   0.000    0.00
  21.250   20.23   -1.06    0.71   0.000   0.200   0.000    0.00
  21.300   21.16   -3.19    0.45   0.000   0.200   0.000    0.00
  21.350   21.24   -3.72   -0.39   0.000   0.200   0.000    0.00
  21.400   21.03    1.27   -0.94   0.000   0.200   0.000    0.00
  21.450   21.44   -2.90   -2.61   0.000   0.200   0.000    0.00
  21.500   21.28   -3.58   -0.97   0.000   0.200   0.000    0.00
  21.550   21.20   -1.15   -1.59   0.000   0.200   0.000    0.00
  21.600   21.20    0.40   -1.07   0.000   0.200   0.000    0.00
  21.650   20.74   -1.05   -1.53   0.000   0.200   0.000    0.00
  21.700   19.84   -3.73   -0.95   0.000   0.200   0.000    0.00
  21.750   19.30   -6.48    0.03   0.000   0.200   0.000    0.00
  21.800   19.14   -8.41    0.60   0.000   0.200   0.000    0.00
  21.850   18.68   -6.33    0.39   0.000   0.200   0.000    0.00
  21.900   17.98   -5.12    0.40   0.000   0.200   0.000    0.00
  21.950   19.12   -3.57   -0.60   0.000   0.200   0.000    0.00
  22.000   19.05   -0.57    1.22   0.000   0.200   0.000    0.00
  22.050   19.46    2.30    0.52   0.000   0.200   0.000    0.00
  22.100   20.43    2.13    1.14   0.000   0.200   0.000    0.00
  22.150   20.80    1.88    0.28   0.000   0.200   0.000    0.00
  22.200   21.35   -0.33    0.21   0.000   0.200   0.000    0.00
  22.250   20.73    0.75    0.38   0.000   0.200   0.000    0.00
  22.300   20.20    1.66   -0.54   0.000   0.200   0.000    0.00
  22.350   20.00    1.20   -0.48   0.000   0.200   0.000    0.00