! This hub-height wind-speed file was generated by TurbSim (v1.06.00, 21-Sep-2012) on 16-Jun-2018 at 18:39:14.
!
! The requested statistics for this data were:
!    Mean Total Wind Speed =   19.000 m/s
!    Turbulence Intensity  =   14.626%
!
!   Time  HorSpd  WndDir  VerSpd  HorShr  VerShr  LnVShr  GstSpd
!  (sec)   (m/s)   (deg)   (m/s)     (-)     (-)     (-)   (m/s)
   0.000   19.50   11.52    0.19   0.000   0.200   0.000    0.00
   0.050   20.00   13.39   -0.08   0.000   0.200   0.000    0.00
   0.100   20.04   12.28    0.71   0.000   0.200   0.000    0.00
   0.150   20.11   12.86    0.03   0.000   0.200   0.000    0.00
   0.200   19.10   13.42    0.06   0.000   0.200   0.000    0.00
   0.250   19.26   14.35   -0.40   0.000   0.200   0.000    0.00
   0.300   19.67   11.92   -0.52   0.000   0.200   0.000    0.00
   0.350   20.44   10.32   -0.20   0.000   0.200   0.000    0.00
   0.400   19.81    9.39   -0.63   0.000   0.200   0.000    0.00
   0.450   19.70   10.34   -0.29   0.000   0.200   0.000    0.00
   0.500   20.13    7.35   -0.69   0.000   0.200   0.000    0.00
   0.550   20.16    8.35   -0.97   0.000   0.200   0.000    0.00
   0.600   20.07   10.62   -0.72   0.000   0.200   0.000    0.00
   0.650   20.03   10.50   -0.80   0.000   0.200   0.000    0.00
   0.700   20.20    8.72   -1.47   0.000   0.200   0.000    0.00
   0.750   20.58    8.70   -1.35   0.000   0.200   0.000    0.00
   0.800   21.01    9.87   -0.75   0.000   0.200   0.000    0.00
   0.850   20.83   10.57   -0.91   0.000   0.200   0.000    0.00
   0.900   21.47   11.73   -0.43   0.000   0.200   0.000    0.00
   0.950   20.81   13.23   -1.39   0.000   0.200   0.000    0.00
   1.000   20.56   14.35   -1.76   0.000   0.200   0.000    0.00
   1.050   21.56   12.12   -2.00   0.000   0.200   0.000    0.00
   1.100   21.09    8.65   -2.49   0.000   0.200   0.000    0.00
   1.150   22.22    8.71   -2.26   0.000   0.200   0.000    0.00
   1.200   21.84    7.79   -1.58   0.000   0.200   0.000    0.00
   1.250   21.79    5.83   -0.35   0.000   0.200   0.000    0.00
   1.300   21.62    7.29   -0.01   0.000   0.200   0.000    0.00
   1.350   21.85    5.66   -0.82   0.000   0.200   0.000    0.00
   1.400   21.81    7.95   -1.02   0.000   0.200   0.000    0.00
   1.450   20.88   10.08   -0.57   0.000   0.200   0.000    0.00
   1.500   21.35   10.08    0.35   0.000   0.200   0.000    0.00
   1.550   21.29   10.10   -0.09   0.000   0.200   0.000    0.00
   1.600   21.29   11.63    0.61   0.000   0.200   0.000    0.00
   1.650   20.81   10.45    0.88   0.000   0.200   0.000    0.00
   1.700   20.64   12.92    0.18   0.000   0.200   0.000    0.00
   1.750   19.80   10.84    0.38   0.000   0.200   0.000    0.00
   1.800   19.47   11.03   -0.08   0.000   0.200   0.000    0.00
   1.850   19.27    9.39    0.56   0.000   0.200   0.000    0.00
   1.900   18.33    8.28    0.62   0.000   0.200   0.000    0.00
   1.950   17.53    9.68    0.27   0.000   0.200   0.000    0.00
   2.000   17.19   10.20    0.45   0.000   0.200   0.000    0.00
   2.050   16.99   12.62    1.15   0.000   0.200   0.000    0.00
   2.100   18.07    6.88    0.90   0.000   0.200   0.000    0.00
   2.150   18.13    6.65    0.33   0.000   0.200   0.000    0.00
   2.200   18.19    2.56   -0.09   0.000   0.200   0.000    0.00
   2.250   18.07    1.96   -1.20   0.000   0.200   0.000    0.00
   2.300   18.59    1.12   -0.60   0.000   0.200   0.000    0.00
   2.350   17.97   -1.52   -0.78   0.000   0.200   0.000    0.00
   2.400   17.23    0.53   -1.14   0.000   0.200   0.000    0.00
   2.450   17.06    5.72   -0.85   0.000   0.200   0.000    0.00
   2.500   17.10    6.34    0.32   0.000   0.200   0.000    0.00
   2.550   16.72    4.61   -0.19   0.000   0.200   0.000    0.00
   2.600   16.33    2.51   -1.51   0.000   0.200   0.000    0.00
   2.650   17.38    4.16   -1.71   0.000   0.200   0.000    0.00
   2.700   18.43    3.45   -1.76   0.000   0.200   0.000    0.00
   2.750   18.89    6.78   -1.64   0.000   0.200   0.000    0.00
   2.800   18.47    5.36   -2.40   0.000   0.200   0.000    0.00
   2.850   18.31    5.61   -2.55   0.000   0.200   0.000    0.00
   2.900   18.72    3.01   -3.16   0.000   0.200   0.000    0.00
   2.950   19.09    0.69   -2.73   0.000   0.200   0.000    0.00
   3.000   18.84    1.97   -3.04   0.000   0.200   0.000    0.00
   3.050   18.29   -2.40   -3.21   0.000   0.200   0.000    0.00
   3.100   18.73   -3.35   -2.59   0.000   0.200   0.000    0.00
   3.150   17.77   -2.49   -3.15   0.000   0.200   0.000    0.00
   3.200   17.09   -3.82   -3.70   0.000   0.200   0.000    0.00
   3.250   17.05   -3.43   -4.13   0.000   0.200   0.000    0.00
   3.300   17.28   -2.33   -5.31   0.000   0.200   0.000    0.00
   3.350   17.77   -3.61   -4.13   0.000   0.200   0.000    0.00
   3.400   17.20   -0.24   -2.94   0.000   0.200   0.000    0.00
   3.450   17.76   -0.53   -2.08   0.000   0.200   0.000    0.00
   3.500   17.88   -1.65   -2.11   0.000   0.200   0.000    0.00
   3.550   17.39   -1.76   -2.66   0.000   0.200   0.000    0.00
   3.600   17.40   -3.29   -2.39   0.000   0.200   0.000    0.00
   3.650   18.05   -0.50   -2.37   0.000   0.200   0.000    0.00
   3.700   17.77   -4.32   -0.78   0.000   0.200   0.000    0.00
   3.750   17.76   -5.97   -0.55   0.000   0.200   0.000    0.00
   3.800   16.89   -2.80    0.69   0.000   0.200   0.000    0.00
   3.850   17.01   -3.69   -0.28   0.000   0.200   0.000    0.00
   3.900   17.03   -5.10   -0.94   0.000   0.200   0.000    0.00
   3.950   17.74   -7.08   -1.07   0.000   0.200   0.000    0.00
   4.000   17.37  -11.08   -0.39   0.000   0.200   0.000    0.00
   4.050   17.76  -14.11    0.43   0.000   0.200   0.000    0.00
   4.100   18.46  -15.38   -0.05   0.000   0.200   0.000    0.00
   4.150   17.87  -15.57    0.04   0.000   0.200   0.000    0.00
   4.200   18.53  -12.45    0.22   0.000   0.200   0.000    0.00
   4.250   18.80  -13.04    0.48   0.000   0.200   0.000    0.00
   4.300   19.02  -14.86    0.22   0.000   0.200   0.000    0.00
   4.350   18.82  -14.63    0.24   0.000   0.200   0.000    0.00
   4.400   18.27   -9.98    0.12   0.000   0.200   0.000    0.00
   4.450   17.78   -8.87    0.17   0.000   0.200   0.000    0.00
   4.500   17.67   -8.42   -0.03   0.000   0.200   0.000    0.00
   4.550   18.28  -10.32    0.55   0.000   0.200   0.000    0.00
   4.600   19.07   -9.53    1.72   0.000   0.200   0.000    0.00
   4.650   18.77   -9.73    1.37   0.000   0.200   0.000    0.00
   4.700   18.14   -7.90    1.93   0.000   0.200   0.000    0.00
   4.750   17.86   -4.32    2.14   0.000   0.200   0.000    0.00
   4.800   18.97   -2.77    2.43   0.000   0.200   0.000    0.00
   4.850   18.65   -4.68    2.66   0.000   0.200   0.000    0.00
   4.900   18.36   -3.01    2.61   0.000   0.200   0.000    0.00
   4.950   18.06   -2.39    2.09   0.000   0.200   0.000    0.00
   5.000   17.79   -0.32    2.16   0.000   0.200   0.000    0.00
   5.050   18.17   -1.65    1.81   0.000   0.200   0.000    0.00
   5.100   19.30   -1.40    1.31   0.000   0.200   0.000    0.00
   5.150   19.47   -3.22    1.26   0.000   0.200   0.000    0.00
   5.200   19.39   -3.58    1.95   0.000   0.200   0.000    0.00
   5.250   19.45    0.03    2.00   0.000   0.200   0.000    0.00
   5.300   19.52    0.71    2.44   0.000   0.200   0.000    0.00
   5.350   19.62    2.23    2.31   0.000   0.200   0.000    0.00
   5.400   19.90    2.31    0.94   0.000   0.200   0.000    0.00
   5.450   19.97    4.09    0.98   0.000   0.200   0.000    0.00
   5.500   19.77    3.54    0.61   0.000   0.200   0.000    0.00
   5.550   20.71    0.70    0.66   0.000   0.200   0.000    0.00
   5.600   21.02   -1.37    0.68   0.000   0.200   0.000    0.00
   5.650   20.29    2.91    0.48   0.000   0.200   0.000    0.00
   5.700   20.07    1.77    0.10   0.000   0.200   0.000    0.00
   5.750   19.23   -1.70    1.13   0.000   0.200   0.000    0.00
   5.800   18.91    1.67    0.43   0.000   0.200   0.000    0.00
   5.850   18.31    3.51    1.09   0.000   0.200   0.000    0.00
   5.900   18.00    1.42    1.83   0.000   0.200   0.000    0.00
   5.950   18.53    0.76    1.15   0.000   0.200   0.000    0.00
   6.000   18.15    3.78    1.59   0.000   0.200   0.000    0.00
   6.050   18.29    3.87    1.26   0.000   0.200   0.000    0.00
   6.100   18.34    5.49    1.24   0.000   0.200   0.000    0.00
   6.150   18.55   10.15    1.13   0.000   0.200   0.000    0.00
   6.200   18.94    9.38    1.32   0.000   0.200   0.000    0.00
   6.250   19.54    8.44    1.41   0.000   0.200   0.000    0.00
   6.300   19.08    5.33    0.77   0.000   0.200   0.000    0.00
   6.350   18.86    4.05    0.40   0.000   0.200   0.000    0.00
   6.400   19.54    3.41    0.65   0.000   0.200   0.000    0.00
   6.450   18.87    3.57    0.46   0.000   0.200   0.000    0.00
   6.500   19.02    5.30    0.89   0.000   0.200   0.000    0.00
   6.550   19.77    7.30    0.91   0.000   0.200   0.000    0.00
   6.600   19.41    7.65    1.49   0.000   0.200   0.000    0.00
   6.650   19.07    9.35    1.47   0.000   0.200   0.000    0.00
   6.700   19.46    8.68    1.05   0.000   0.200   0.000    0.00
   6.750   18.30    6.54    1.41   0.000   0.200   0.000    0.00
   6.800   18.17    3.27    1.18   0.000   0.200   0.000    0.00
   6.850   18.32    4.41    0.99   0.000   0.200   0.000    0.00
   6.900   17.90    8.90    0.70   0.000   0.200   0.000    0.00
   6.950   18.13    6.12    0.44   0.000   0.200   0.000    0.00
   7.000   17.33    6.19    0.87   0.000   0.200   0.000    0.00
   7.050   17.06    6.56    1.50   0.000   0.200   0.000    0.00
   7.100   17.75    6.19    1.49   0.000   0.200   0.000    0.00
   7.150   18.40    4.82    1.99   0.000   0.200   0.000    0.00
   7.200   17.95    2.84    1.34   0.000   0.200   0.000    0.00
   7.250   17.16    1.52    0.26   0.000   0.200   0.000    0.00
   7.300   17.97    1.20    0.13   0.000   0.200   0.000    0.00
   7.350   18.46   -0.87    0.44   0.000   0.200   0.000    0.00
   7.400   17.92    0.09    0.33   0.000   0.200   0.000    0.00
   7.450   16.91    2.21   -0.94   0.000   0.200   0.000    0.00
   7.500   16.49    3.94   -0.65   0.000   0.200   0.000    0.00
   7.550   17.08    1.33   -0.97   0.000   0.200   0.000    0.00
   7.600   17.89    2.31   -1.53   0.000   0.200   0.000    0.00
   7.650   17.88    1.31   -1.47   0.000   0.200   0.000    0.00
   7.700   18.13   -0.41   -0.44   0.000   0.200   0.000    0.00
   7.750   19.05    1.47   -0.01   0.000   0.200   0.000    0.00
   7.800   18.55    3.07    0.65   0.000   0.200   0.000    0.00
   7.850   17.98    4.90    1.34   0.000   0.200   0.000    0.00
   7.900   18.75    5.74    1.65   0.000   0.200   0.000    0.00
   7.950   17.91    5.65    2.02   0.000   0.200   0.000    0.00
   8.000   17.30    5.53    2.39   0.000   0.200   0.000    0.00
   8.050   17.81    5.32    2.27   0.000   0.200   0.000    0.00
   8.100   17.81    7.19    1.69   0.000   0.200   0.000    0.00
   8.150   18.20    7.19    0.91   0.000   0.200   0.000    0.00
   8.200   17.63    3.06    0.76   0.000   0.200   0.000    0.00
   8.250   18.01    4.67    0.65   0.000   0.200   0.000    0.00
   8.300   17.75    3.98   -0.84   0.000   0.200   0.000    0.00
   8.350   18.30    1.65   -0.42   0.000   0.200   0.000    0.00
   8.400   18.89    3.52   -0.49   0.000   0.200   0.000    0.00
   8.450   18.89    3.73   -1.12   0.000   0.200   0.000    0.00
   8.500   18.54    0.29   -0.98   0.000   0.200   0.000    0.00
   8.550   18.86   -2.05   -0.24   0.000   0.200   0.000    0.00
   8.600   18.56   -1.51    0.19   0.000   0.200   0.000    0.00
   8.650   19.20    0.68    0.10   0.000   0.200   0.000    0.00
   8.700   19.39    0.81    0.21   0.000   0.200   0.000    0.00
   8.750   19.19    2.37    0.19   0.000   0.200   0.000    0.00
   8.800   19.21    2.95    0.56   0.000   0.200   0.000    0.00
   8.850   18.76    1.53   -0.08   0.000   0.200   0.000    0.00
   8.900   19.51    1.73    0.52   0.000   0.200   0.000    0.00
   8.950   20.00    6.21    0.54   0.000   0.200   0.000    0.00
   9.000   19.69    6.27   -1.12   0.000   0.200   0.000    0.00
   9.050   20.01    5.73   -1.15   0.000   0.200   0.000    0.00
   9.100   19.86    2.46   -0.24   0.000   0.200   0.000    0.00
   9.150   19.01    0.29   -0.47   0.000   0.200   0.000    0.00
   9.200   18.59    0.38   -0.92   0.000   0.200   0.000    0.00
   9.250   19.12    2.27   -0.95   0.000   0.200   0.000    0.00
   9.300   19.36    5.16   -0.69   0.000   0.200   0.000    0.00
   9.350   19.21    6.45   -1.68   0.000   0.200   0.000    0.00
   9.400   19.59    2.90   -0.75   0.000   0.200   0.000    0.00
   9.450   20.21    2.33    0.28   0.000   0.200   0.000    0.00
   9.500   20.49    1.93   -0.18   0.000   0.200   0.000    0.00
   9.550   20.42   -0.57   -0.97   0.000   0.200   0.000    0.00
   9.600   19.56    0.20   -2.07   0.000   0.200   0.000    0.00
   9.650   19.87   -0.26   -2.28   0.000   0.200   0.000    0.00
   9.700   19.91    2.13   -2.19   0.000   0.200   0.000    0.00
   9.750   19.78   -0.51   -1.77   0.000   0.200   0.000    0.00
   9.800   19.25   -0.06   -2.11   0.000   0.200   0.000    0.00
   9.850   19.15   -1.18   -1.69   0.000   0.200   0.000    0.00
   9.900   19.22   -0.87   -1.89   0.000   0.200   0.000    0.00
   9.950   19.58   -1.12   -1.93   0.000   0.200   0.000    0.00
  10.000   19.34    1.27   -1.85   0.000   0.200   0.000    0.00
  10.050   18.58    2.60   -1.44   0.000   0.200   0.000    0.00
  10.100   18.54    3.56   -0.63   0.000   0.200   0.000    0.00
  10.150   18.26    3.19   -0.51   0.000   0.200   0.000    0.00
  10.200   18.44    3.00   -0.90   0.000   0.200   0.000    0.00
  10.250   18.57    0.68    0.41   0.000   0.200   0.000    0.00
  10.300   19.00    1.93    0.98   0.000   0.200   0.000    0.00
  10.350   18.90   -0.88    0.63   0.000   0.200   0.000    0.00
  10.400   19.25   -1.24    1.07   0.000   0.200   0.000    0.00
  10.450   19.95    1.11    1.28   0.000   0.200   0.000    0.00
  10.500   19.63    0.20    1.13   0.000   0.200   0.000    0.00
  10.550   19.20    0.59    0.44   0.000   0.200   0.000    0.00
  10.600   18.88   -0.76    0.52   0.000   0.200   0.000    0.00
  10.650   18.44   -2.06    0.67   0.000   0.200   0.000    0.00
  10.700   17.75   -0.78    0.06   0.000   0.200   0.000    0.00
  10.750   17.02    1.20   -0.06   0.000   0.200   0.000    0.00
  10.800   16.93    1.75    0.08   0.000   0.200   0.000    0.00
  10.850   17.93    3.20    0.68   0.000   0.200   0.000    0.00
  10.900   18.18    2.24    0.83   0.000   0.200   0.000    0.00
  10.950   17.87    0.17    1.06   0.000   0.200   0.000    0.00
  11.000   18.13    0.66    0.79   0.000   0.200   0.000    0.00
  11.050   19.04    1.48    1.15   0.000   0.200   0.000    0.00
  11.100   18.77   -0.73    0.54   0.000   0.200   0.000    0.00
  11.150   18.98   -1.06    0.82   0.000   0.200   0.000    0.00
  11.200   19.41   -2.10    0.88   0.000   0.200   0.000    0.00
  11.250   18.79   -0.40    0.48   0.000   0.200   0.000    0.00
  11.300   18.84    2.06   -0.20   0.000   0.200   0.000    0.00
  11.350   18.88    0.08   -0.53   0.000   0.200   0.000    0.00
  11.400   19.08   -0.80   -1.01   0.000   0.200   0.000    0.00
  11.450   19.25    1.20   -1.57   0.000   0.200   0.000    0.00
  11.500   19.24    4.75   -0.83   0.000   0.200   0.000    0.00
  11.550   20.30    6.12   -1.53   0.000   0.200   0.000    0.00
  11.600   20.70    5.98   -1.20   0.000   0.200   0.000    0.00
  11.650   20.87    4.49   -2.11   0.000   0.200   0.000    0.00
  11.700   21.05    4.09   -1.96   0.000   0.200   0.000    0.00
  11.750   20.98    5.67   -1.88   0.000   0.200   0.000    0.00
  11.800   21.16    3.85   -1.65   0.000   0.200   0.000    0.00
  11.850   21.14    1.37   -2.71   0.000   0.200   0.000    0.00
  11.900   21.57    1.52   -2.80   0.000   0.200   0.000    0.00
  11.950   21.86   -0.34   -2.48   0.000   0.200   0.000    0.00
  12.000   21.84    1.29   -2.99   0.000   0.200   0.000    0.00
  12.050   21.90   -0.10   -2.70   0.000   0.200   0.000    0.00
  12.100   21.81    0.84   -2.27   0.000   0.200   0.000    0.00
  12.150   22.34    3.01   -1.85   0.000   0.200   0.000    0.00
  12.200   21.98    2.99   -1.36   0.000   0.200   0.000    0.00
  12.250   21.64    4.97   -0.79   0.000   0.200   0.000    0.00
  12.300   22.45    4.91   -0.92   0.000   0.200   0.000    0.00
  12.350   21.54    5.52   -1.80   0.000   0.200   0.000    0.00
  12.400   21.71    7.54   -1.71   0.000   0.200   0.000    0.00
  12.450   21.10    6.43   -1.45   0.000   0.200   0.000    0.00
  12.500   20.88    6.15   -1.85   0.000   0.200   0.000    0.00
  12.550   21.79    9.06   -1.62   0.000   0.200   0.000    0.00
  12.600   21.57   11.86   -2.50   0.000   0.200   0.000    0.00
  12.650   22.36   10.62   -2.85   0.000   0.200   0.000    0.00
  12.700   23.14    9.52   -3.11   0.000   0.200   0.000    0.00
  12.750   23.11    9.70   -2.34   0.000   0.200   0.000    0.00
  12.800   21.72    6.57   -2.51   0.000   0.200   0.000    0.00
  12.850   21.36    8.36   -2.01   0.000   0.200   0.000    0.00
  12.900   20.97    9.73   -1.32   0.000   0.200   0.000    0.00
  12.950   21.30    8.90   -1.26   0.000   0.200   0.000    0.00
  13.000   20.17    7.86   -1.95   0.000   0.200   0.000    0.00
  13.050   19.80    6.85   -0.33   0.000   0.200   0.000    0.00
  13.100   18.81    3.75   -0.25   0.000   0.200   0.000    0.00
  13.150   19.04    5.33   -0.31   0.000   0.200   0.000    0.00
  13.200   18.98    8.14   -1.40   0.000   0.200   0.000    0.00
  13.250   19.30    9.15   -1.48   0.000   0.200   0.000    0.00
  13.300   19.83    7.59   -1.61   0.000   0.200   0.000    0.00
  13.350   19.74    7.78   -1.24   0.000   0.200   0.000    0.00
  13.400   19.70    6.88   -1.56   0.000   0.200   0.000    0.00
  13.450   19.69    7.06   -1.20   0.000   0.200   0.000    0.00
  13.500   19.42    7.97   -0.73   0.000   0.200   0.000    0.00
  13.550   19.12   10.52   -0.23   0.000   0.200   0.000    0.00
  13.600   18.97   12.21    0.22   0.000   0.200   0.000    0.00
  13.650   19.41   11.30    0.16   0.000   0.200   0.000    0.00
  13.700   20.34   10.77    0.73   0.000   0.200   0.000    0.00
  13.750   20.16    8.94    0.59   0.000   0.200   0.000    0.00
  13.800   20.04    9.94    0.41   0.000   0.200   0.000    0.00
  13.850   20.38    8.82    0.21   0.000   0.200   0.000    0.00
  13.900   20.00    8.63    0.62   0.000   0.200   0.000    0.00
  13.950   18.72    8.49    0.77   0.000   0.200   0.000    0.00
  14.000   18.37    4.85    0.69   0.000   0.200   0.000    0.00
  14.050   18.71    6.95    0.09   0.000   0.200   0.000    0.00
  14.100   19.75    7.84   -0.63   0.000   0.200   0.000    0.00
  14.150   18.89    6.36   -0.37   0.000   0.200   0.000    0.00
  14.200   19.34    4.43   -0.88   0.000   0.200   0.000    0.00
  14.250   19.11    1.52   -1.91   0.000   0.200   0.000    0.00
  14.300   18.83    2.77   -1.41   0.000   0.200   0.000    0.00
  14.350   19.00    4.47   -1.58   0.000   0.200   0.000    0.00
  14.400   19.21    6.40   -1.34   0.000   0.200   0.000    0.00
  14.450   19.34    5.56   -1.74   0.000   0.200   0.000    0.00
  14.500   18.62    6.12   -2.47   0.000   0.200   0.000    0.00
  14.550   18.95    5.59   -1.69   0.000   0.200   0.000    0.00
  14.600   18.77    4.46   -1.69   0.000   0.200   0.000    0.00
  14.650   18.39    3.37   -0.90   0.000   0.200   0.000    0.00
  14.700   19.32    3.15   -1.07   0.000   0.200   0.000    0.00
  14.750   18.49    4.27   -1.44   0.000   0.200   0.000    0.00
  14.800   18.41    1.54   -1.70   0.000   0.200   0.000    0.00
  14.850   18.58   -0.19   -1.71   0.000   0.200   0.000    0.00
  14.900   19.03    0.62   -2.22   0.000   0.200   0.000    0.00
  14.950   19.41    0.40   -1.91   0.000   0.200   0.000    0.00
  15.000   19.49    0.76   -2.73   0.000   0.200   0.000    0.00
  15.050   19.65    4.70   -2.65   0.000   0.200   0.000    0.00
  15.100   19.78    4.76   -2.07   0.000   0.200   0.000    0.00
  15.150   20.76    2.06   -1.39   0.000   0.200   0.000    0.00
  15.200   20.79    2.18   -1.29   0.000   0.200   0.000    0.00
  15.250   21.14    0.76   -0.80   0.000   0.200   0.000    0.00
  15.300   21.38    4.11   -0.77   0.000   0.200   0.000    0.00
  15.350   20.69    1.70   -0.64   0.000   0.200   0.000    0.00
  15.400   20.04   -1.99   -0.76   0.000   0.200   0.000    0.00
  15.450   20.41   -2.90    0.54   0.000   0.200   0.000    0.00
  15.500   20.52   -1.01    1.48   0.000   0.200   0.000    0.00
  15.550   20.90   -2.31    1.54   0.000   0.200   0.000    0.00
  15.600   20.59   -5.03    2.37   0.000   0.200   0.000    0.00
  15.650   21.21   -2.81    2.78   0.000   0.200   0.000    0.00
  15.700   22.42   -3.80    1.76   0.000   0.200   0.000    0.00
  15.750   22.56   -2.64    1.88   0.000   0.200   0.000    0.00
  15.800   22.16   -4.73    1.82   0.000   0.200   0.000    0.00
  15.850   22.28   -3.41    1.72   0.000   0.200   0.000    0.00
  15.900   20.57   -4.81    1.61   0.000   0.200   0.000    0.00
  15.950   20.01   -5.31    1.55   0.000   0.200   0.000    0.00
  16.000   20.36   -4.36    1.57   0.000   0.200   0.000    0.00
  16.050   20.51   -4.34    1.02   0.000   0.200   0.000    0.00
  16.100   20.83   -3.30    1.01   0.000   0.200   0.000    0.00
  16.150   21.44   -2.59    0.91   0.000   0.200   0.000    0.00
  16.200   21.61   -0.84    0.36   0.000   0.200   0.000    0.00
  16.250   21.76    1.71    1.84   0.000   0.200   0.000    0.00
  16.300   20.78    2.45    2.91   0.000   0.200   0.000    0.00
  16.350   21.27    2.73    3.63   0.000   0.200   0.000    0.00
  16.400   20.88    2.16    2.63   0.000   0.200   0.000    0.00
  16.450   21.36    2.68    2.67   0.000   0.200   0.000    0.00
  16.500   21.23    5.15    2.36   0.000   0.200   0.000    0.00
  16.550   21.09    3.62    0.91   0.000   0.200   0.000    0.00
  16.600   20.37    4.05    1.05   0.000   0.200   0.000    0.00
  16.650   21.01    4.96    0.44   0.000   0.200   0.000    0.00
  16.700   21.57    1.18    1.23   0.000   0.200   0.000    0.00
  16.750   21.49   -0.04    0.74   0.000   0.200   0.000    0.00
  16.800   21.61    0.71    1.49   0.000   0.200   0.000    0.00
  16.850   22.11    2.10    0.97   0.000   0.200   0.000    0.00
  16.900   22.73    2.02    0.06   0.000   0.200   0.000    0.00
  16.950   22.62    0.62   -0.13   0.000   0.200   0.000    0.00
  17.000   22.02   -0.60    0.66   0.000   0.200   0.000    0.00
  17.050   21.47    0.23    0.92   0.000   0.200   0.000    0.00
  17.100   21.88    0.70   -0.37   0.000   0.200   0.000    0.00
  17.150   21.76    1.78   -0.91   0.000   0.200   0.000    0.00
  17.200   22.26    2.87   -1.55   0.000   0.200   0.000    0.00
  17.250   21.80    2.09   -1.61   0.000   0.200   0.000    0.00
  17.300   21.63    2.82   -1.24   0.000   0.200   0.000    0.00
  17.350   21.11    2.10   -0.96   0.000   0.200   0.000    0.00
  17.400   20.72    2.06   -0.97   0.000   0.200   0.000    0.00
  17.450   20.37   -1.54   -0.67   0.000   0.200   0.000    0.00
  17.500   20.88   -2.35   -0.74   0.000   0.200   0.000    0.00
  17.550   21.61    1.98   -0.42   0.000   0.200   0.000    0.00
  17.600   22.03    2.87    0.51   0.000   0.200   0.000    0.00
  17.650   21.88    0.95    0.45   0.000   0.200   0.000    0.00
  17.700   22.17    0.10    0.41   0.000   0.200   0.000    0.00
  17.750   21.00    3.12    0.43   0.000   0.200   0.000    0.00
  17.800   20.66    3.99    0.17   0.000   0.200   0.000    0.00
  17.850   21.11    3.89   -0.39   0.000   0.200   0.000    0.00
  17.900   20.76    2.77   -1.09   0.000   0.200   0.000    0.00
  17.950   20.47    2.06   -0.48   0.000   0.200   0.000    0.00
  18.000   20.55    2.40   -0.22   0.000   0.200   0.000    0.00
  18.050   20.30    2.28   -0.32   0.000   0.200   0.000    0.00
  18.100   20.79    2.56   -0.69   0.000   0.200   0.000    0.00
  18.150   20.26    3.99   -0.58   0.000   0.200   0.000    0.00
  18.200   20.40    2.49   -0.46   0.000   0.200   0.000    0.00
  18.250   20.43    5.14   -0.56   0.000   0.200   0.000    0.00
  18.300   20.09    5.79   -0.03   0.000   0.200   0.000    0.00
  18.350   20.92    4.20    0.11   0.000   0.200   0.000    0.00
  18.400   20.76    4.71    0.38   0.000   0.200   0.000    0.00
  18.450   20.50    3.68    1.41   0.000   0.200   0.000    0.00
  18.500   21.14    5.12    0.98   0.000   0.200   0.000    0.00
  18.550   21.99    3.05    0.27   0.000   0.200   0.000    0.00
  18.600   21.71    4.89    0.46   0.000   0.200   0.000    0.00
  18.650   21.71    3.70    0.98   0.000   0.200   0.000    0.00
  18.700   22.54    1.30    0.82   0.000   0.200   0.000    0.00
  18.750   22.42    0.01    0.40   0.000   0.200   0.000    0.00
  18.800   21.62    0.55    1.63   0.000   0.200   0.000    0.00
  18.850   21.40    3.18    2.20   0.000   0.200   0.000    0.00
  18.900   21.94    5.35    2.07   0.000   0.200   0.000    0.00
  18.950   21.79    3.87    2.07   0.000   0.200   0.000    0.00
  19.000   21.70    3.76    1.03   0.000   0.200   0.000    0.00
  19.050   21.35    3.93    2.44   0.000   0.200   0.000    0.00
  19.100   22.05    2.95    2.17   0.000   0.200   0.000    0.00
  19.150   21.81    5.12    1.70   0.000   0.200   0.000    0.00
  19.200   22.25    7.02    0.41   0.000   0.200   0.000    0.00
  19.250   21.90    7.90    0.18   0.000   0.200   0.000    0.00
  19.300   22.35   10.08    0.07   0.000   0.200   0.000    0.00
  19.350   23.46    9.57   -0.73   0.000   0.200   0.000    0.00
  19.400   23.14    7.93   -0.66   0.000   0.200   0.000    0.00
  19.450   23.02    7.67   -0.39   0.000   0.200   0.000    0.00
  19.500   22.17    9.11   -0.99   0.000   0.200   0.000    0.00
  19.550   21.76    7.96   -0.64   0.000   0.200   0.000    0.00
  19.600   21.34    7.24   -1.40   0.000   0.200   0.000    0.00
  19.650   21.66    5.66   -2.70   0.000   0.200   0.000    0.00
  19.700   21.23    5.46   -2.13   0.000   0.200   0.000    0.00
  19.750   21.09    4.62   -2.09   0.000   0.200   0.000    0.00
  19.800   21.84    6.06   -2.25   0.000   0.200   0.000    0.00
  19.850   21.98    7.45   -2.69   0.000   0.200   0.000    0.00
  19.900   22.41    6.45   -2.95   0.000   0.200   0.000    0.00
  19.950   23.09    8.68   -2.37   0.000   0.200   0.000    0.00
  20.000   22.50    9.49   -2.19   0.000   0.200   0.000    0.00
  20.050   22.35    9.16   -2.67   0.000   0.200   0.000    0.00
  20.100   22.08   10.48   -2.83   0.000   0.200   0.000    0.00
  20.150   21.94    7.56   -3.11   0.000   0.200   0.000    0.00
  20.200   21.60    7.93   -4.71   0.000   0.200   0.000    0.00
  20.250   22.32    7.37   -3.71   0.000   0.200   0.000    0.00
  20.300   22.50    3.98   -3.33   0.000   0.200   0.000    0.00
  20.350   22.79    4.04   -2.76   0.000   0.200   0.000    0.00
  20.400   24.01    6.07   -3.28   0.000   0.200   0.000    0.00
  20.450   24.19    7.21   -3.02   0.000   0.200   0.000    0.00
  20.500   23.41    8.21   -2.57   0.000   0.200   0.000    0.00
  20.550   23.29    8.41   -2.02   0.000   0.200   0.000    0.00
  20.600   23.02    7.57   -1.30   0.000   0.200   0.000    0.00
  20.650   22.98    8.71   -1.30   0.000   0.200   0.000    0.00
  20.700   23.06   11.05   -2.40   0.000   0.200   0.000    0.00
  20.750   22.20   10.86   -2.25   0.000   0.200   0.000    0.00
  20.800   21.77    8.74   -2.55   0.000   0.200   0.000    0.00
  20.850   21.72    7.82   -1.59   0.000   0.200   0.000    0.00
  20.900   22.43    7.66   -1.86   0.000   0.200   0.000    0.00
  20.950   23.17    6.96   -2.28   0.000   0.200   0.000    0.00
  21.000   23.01    9.08   -2.76   0.000   0.200   0.000    0.00
  21.050   22.37    8.29   -2.01   0.000   0.200   0.000    0.00
  21.100   22.25    6.56   -2.02   0.000   0.200   0.000    0.00
  21.150   22.43    5.95   -2.35   0.000   0.200   0.000    0.00
  21.200   23.46    6.49   -2.61   0.000   0.200   0.000    0.00
  21.250   24.18    7.10   -2.45   0.000   0.200   0.000    0.00
  21.300   24.31    4.50   -2.95   0.000   0.200   0.000    0.00
  21.350   24.13    4.65   -2.65   0.000   0.200   0.000    0.00
  21.400   22.95    7.10   -2.61   0.000   0.200   0.000    0.00
  21.450   23.51    8.10   -3.60   0.000   0.200   0.000    0.00
  21.500   24.42    9.57   -2.51   0.000   0.200   0.000    0.00
  21.550   24.14    8.15   -2.82   0.000   0.200   0.000    0.00
  21.600   24.83    9.97   -1.62   0.000   0.200   0.000    0.00
  21.650   25.02    7.94   -1.36   0.000   0.200   0.000    0.00
  21.700   24.76    6.75   -2.24   0.000   0.200   0.000    0.00
  21.750   25.10    5.11   -2.49   0.000   0.200   0.000    0.00
  21.800   25.17    5.79   -2.14   0.000   0.200   0.000    0.00
  21.850   24.23    5.16   -1.67   0.000   0.200   0.000    0.00
  21.900   23.80    5.55   -2.96   0.000   0.200   0.000    0.00
  21.950   23.46    7.92   -3.96   0.000   0.200   0.000    0.00
  22.000   23.22    9.39   -4.06   0.000   0.200   0.000    0.00
  22.050   22.93   10.04   -3.22   0.000   0.200   0.000    0.00
  22.100   22.96   12.03   -3.23   0.000   0.200   0.000    0.00
  22.150   22.82   13.06   -1.80   0.000   0.200   0.000    0.00
  22.200   22.62   11.95   -1.87   0.000   0.200   0.000    0.00
  22.250   22.00   10.30   -1.44   0.000   0.200   0.000    0.00
  22.300   21.92    9.72   -2.50   0.000   0.200   0.000    0.00
  22.350   21.75   10.44   -3.00   0.000   0.200   0.000    0.00