! This hub-height wind-speed file was generated by TurbSim (v1.06.00, 21-Sep-2012) on 16-Jun-2018 at 18:32:06.
!
! The requested statistics for this data were:
!    Mean Total Wind Speed =   17.000 m/s
!    Turbulence Intensity  =   20.740%
!
!   Time  HorSpd  WndDir  VerSpd  HorShr  VerShr  LnVShr  GstSpd
!  (sec)   (m/s)   (deg)   (m/s)     (-)     (-)     (-)   (m/s)
   0.000   16.89    3.46   -3.17   0.000   0.200   0.000    0.00
   0.050   15.65    3.05   -3.07   0.000   0.200   0.000    0.00
   0.100   15.54    4.58   -2.71   0.000   0.200   0.000    0.00
   0.150   15.36    4.10   -2.72   0.000   0.200   0.000    0.00
   0.200   15.75    4.92   -2.09   0.000   0.200   0.000    0.00
   0.250   16.55    3.98   -1.56   0.000   0.200   0.000    0.00
   0.300   16.18    3.99   -2.58   0.000   0.200   0.000    0.00
   0.350   15.89    2.32   -2.68   0.000   0.200   0.000    0.00
   0.400   16.92    5.70   -1.56   0.000   0.200   0.000    0.00
   0.450   17.04    5.74   -0.94   0.000   0.200   0.000    0.00
   0.500   16.28    5.90   -1.55   0.000   0.200   0.000    0.00
   0.550   15.99    5.48   -2.32   0.000   0.200   0.000    0.00
   0.600   15.99    3.25   -2.20   0.000   0.200   0.000    0.00
   0.650   15.32    6.97   -2.71   0.000   0.200   0.000    0.00
   0.700   15.42   12.15   -2.55   0.000   0.200   0.000    0.00
   0.750   15.19    9.84   -1.94   0.000   0.200   0.000    0.00
   0.800   15.91   10.89   -1.08   0.000   0.200   0.000    0.00
   0.850   16.15   11.71   -1.98   0.000   0.200   0.000    0.00
   0.900   16.20   10.30   -2.15   0.000   0.200   0.000    0.00
   0.950   16.00    6.60   -1.99   0.000   0.200   0.000    0.00
   1.000   16.01    4.39   -2.62   0.000   0.200   0.000    0.00
   1.050   17.00    6.52   -2.01   0.000   0.200   0.000    0.00
   1.100   16.89    5.13   -2.43   0.000   0.200   0.000    0.00
   1.150   16.77    8.65   -2.03   0.000   0.200   0.000    0.00
   1.200   17.13    6.20   -2.22   0.000   0.200   0.000    0.00
   1.250   16.60    4.81   -3.19   0.000   0.200   0.000    0.00
   1.300   16.22    6.92   -2.89   0.000   0.200   0.000    0.00
   1.350   16.54    4.62   -3.01   0.000   0.200   0.000    0.00
   1.400   17.07    9.72   -2.92   0.000   0.200   0.000    0.00
   1.450   17.55    5.18   -2.35   0.000   0.200   0.000    0.00
   1.500   17.91    6.30   -3.07   0.000   0.200   0.000    0.00
   1.550   17.54    3.38   -2.70   0.000   0.200   0.000    0.00
   1.600   17.23    1.14   -2.42   0.000   0.200   0.000    0.00
   1.650   16.50    1.44   -3.13   0.000   0.200   0.000    0.00
   1.700   17.14    4.25   -3.42   0.000   0.200   0.000    0.00
   1.750   16.62    2.21   -3.16   0.000   0.200   0.000    0.00
   1.800   16.73   -0.05   -3.68   0.000   0.200   0.000    0.00
   1.850   16.19    2.96   -4.11   0.000   0.200   0.000    0.00
   1.900   16.38    2.82   -3.48   0.000   0.200   0.000    0.00
   1.950   16.47   -1.15   -2.80   0.000   0.200   0.000    0.00
   2.000   15.91   -3.24   -1.90   0.000   0.200   0.000    0.00
   2.050   15.70   -3.79   -2.78   0.000   0.200   0.000    0.00
   2.100   17.44   -2.30   -1.75   0.000   0.200   0.000    0.00
   2.150   17.01    2.04   -1.50   0.000   0.200   0.000    0.00
   2.200   15.85    6.39   -1.62   0.000   0.200   0.000    0.00
   2.250   15.19    4.03   -2.36   0.000   0.200   0.000    0.00
   2.300   15.71    8.81   -2.92   0.000   0.200   0.000    0.00
   2.350   15.34   11.57   -3.40   0.000   0.200   0.000    0.00
   2.400   14.95   15.70   -3.53   0.000   0.200   0.000    0.00
   2.450   15.65   19.55   -2.87   0.000   0.200   0.000    0.00
   2.500   14.62   13.96   -3.00   0.000   0.200   0.000    0.00
   2.550   13.94   15.30   -3.21   0.000   0.200   0.000    0.00
   2.600   15.61   17.29   -3.19   0.000   0.200   0.000    0.00
   2.650   15.75   15.53   -2.96   0.000   0.200   0.000    0.00
   2.700   15.37   14.14   -3.24   0.000   0.200   0.000    0.00
   2.750   14.55   14.90   -3.34   0.000   0.200   0.000    0.00
   2.800   13.87   14.81   -2.62   0.000   0.200   0.000    0.00
   2.850   14.52    7.15   -3.57   0.000   0.200   0.000    0.00
   2.900   15.48    6.46   -4.27   0.000   0.200   0.000    0.00
   2.950   15.74    7.36   -3.67   0.000   0.200   0.000    0.00
   3.000   16.04    8.91   -3.87   0.000   0.200   0.000    0.00
   3.050   16.82   11.17   -4.04   0.000   0.200   0.000    0.00
   3.100   15.66   13.67   -3.05   0.000   0.200   0.000    0.00
   3.150   14.94   11.77   -2.05   0.000   0.200   0.000    0.00
   3.200   14.91   12.72   -3.05   0.000   0.200   0.000    0.00
   3.250   14.95    9.35   -3.48   0.000   0.200   0.000    0.00
   3.300   13.13    7.09   -3.87   0.000   0.200   0.000    0.00
   3.350   13.91    7.71   -4.00   0.000   0.200   0.000    0.00
   3.400   14.74    8.88   -3.96   0.000   0.200   0.000    0.00
   3.450   14.41    8.62   -3.49   0.000   0.200   0.000    0.00
   3.500   14.68    8.19   -3.55   0.000   0.200   0.000    0.00
   3.550   14.34   11.29   -3.61   0.000   0.200   0.000    0.00
   3.600   14.40   13.71   -4.02   0.000   0.200   0.000    0.00
   3.650   14.29   18.89   -3.21   0.000   0.200   0.000    0.00
   3.700   14.11   22.72   -2.37   0.000   0.200   0.000    0.00
   3.750   13.43   19.43   -0.71   0.000   0.200   0.000    0.00
   3.800   12.87   22.28   -1.39   0.000   0.200   0.000    0.00
   3.850   12.89   19.51   -0.17   0.000   0.200   0.000    0.00
   3.900   12.51   18.04    0.57   0.000   0.200   0.000    0.00
   3.950   12.98   20.63    0.29   0.000   0.200   0.000    0.00
   4.000   13.08   13.53    0.57   0.000   0.200   0.000    0.00
   4.050   13.27   15.50    1.73   0.000   0.200   0.000    0.00
   4.100   12.63   18.34    1.71   0.000   0.200   0.000    0.00
   4.150   12.61   14.08    1.72   0.000   0.200   0.000    0.00
   4.200   13.43   10.84    1.79   0.000   0.200   0.000    0.00
   4.250   13.50   14.05    1.52   0.000   0.200   0.000    0.00
   4.300   12.81   15.18    2.19   0.000   0.200   0.000    0.00
   4.350   11.87   10.94    1.81   0.000   0.200   0.000    0.00
   4.400   12.36   13.40    1.77   0.000   0.200   0.000    0.00
   4.450   13.05   10.88    0.67   0.000   0.200   0.000    0.00
   4.500   13.48    7.76    0.05   0.000   0.200   0.000    0.00
   4.550   12.81    6.88    0.69   0.000   0.200   0.000    0.00
   4.600   13.95    8.11    0.93   0.000   0.200   0.000    0.00
   4.650   13.92    1.11    0.28   0.000   0.200   0.000    0.00
   4.700   13.56    1.41    0.30   0.000   0.200   0.000    0.00
   4.750   12.05    1.37    0.73   0.000   0.200   0.000    0.00
   4.800   12.27   -4.69    0.20   0.000   0.200   0.000    0.00
   4.850   12.18   -6.98   -1.16   0.000   0.200   0.000    0.00
   4.900   11.92   -6.22   -0.93   0.000   0.200   0.000    0.00
   4.950   12.62    4.26   -0.41   0.000   0.200   0.000    0.00
   5.000   13.57    4.39   -1.06   0.000   0.200   0.000    0.00
   5.050   13.36    8.02   -0.19   0.000   0.200   0.000    0.00
   5.100   12.75   11.77   -0.99   0.000   0.200   0.000    0.00
   5.150   13.26    8.06   -1.40   0.000   0.200   0.000    0.00
   5.200   13.64    8.23   -0.37   0.000   0.200   0.000    0.00
   5.250   13.51    6.15   -0.14   0.000   0.200   0.000    0.00
   5.300   13.61    4.98    0.39   0.000   0.200   0.000    0.00
   5.350   13.77    9.78   -0.97   0.000   0.200   0.000    0.00
   5.400   13.01    7.22   -1.57   0.000   0.200   0.000    0.00
   5.450   13.15   14.08   -1.04   0.000   0.200   0.000    0.00
   5.500   12.97   20.17   -1.87   0.000   0.200   0.000    0.00
   5.550   13.49   22.66   -2.14   0.000   0.200   0.000    0.00
   5.600   13.42   24.67   -1.67   0.000   0.200   0.000    0.00
   5.650   12.63   20.16   -0.72   0.000   0.200   0.000    0.00
   5.700   11.26   22.19   -0.86   0.000   0.200   0.000    0.00
   5.750   11.26   19.29   -1.02   0.000   0.200   0.000    0.00
   5.800   12.17   21.79   -1.66   0.000   0.200   0.000    0.00
   5.850   11.93   22.49   -0.44   0.000   0.200   0.000    0.00
   5.900   12.55   18.82    0.78   0.000   0.200   0.000    0.00
   5.950   12.09   14.08    0.43   0.000   0.200   0.000    0.00
   6.000   11.25    9.37    0.09   0.000   0.200   0.000    0.00
   6.050   11.41    8.34    0.54   0.000   0.200   0.000    0.00
   6.100   10.95    8.93    0.95   0.000   0.200   0.000    0.00
   6.150   11.11    4.05   -0.58   0.000   0.200   0.000    0.00
   6.200   11.93   -1.20    0.88   0.000   0.200   0.000    0.00
   6.250   11.68    2.69    1.35   0.000   0.200   0.000    0.00
   6.300   11.81    4.21    0.56   0.000   0.200   0.000    0.00
   6.350   11.40   -3.55   -0.62   0.000   0.200   0.000    0.00
   6.400   12.06   -2.40   -0.64   0.000   0.200   0.000    0.00
   6.450   12.02   -3.51   -0.88   0.000   0.200   0.000    0.00
   6.500   12.39   -2.63   -0.71   0.000   0.200   0.000    0.00
   6.550   12.50    2.04   -0.42   0.000   0.200   0.000    0.00
   6.600   12.27    1.87   -0.89   0.000   0.200   0.000    0.00
   6.650   12.34   -2.71   -0.25   0.000   0.200   0.000    0.00
   6.700   12.48   -3.23   -0.71   0.000   0.200   0.000    0.00
   6.750   12.02   -2.03   -1.07   0.000   0.200   0.000    0.00
   6.800   12.51   -3.42   -0.35   0.000   0.200   0.000    0.00
   6.850   11.68    0.48   -1.10   0.000   0.200   0.000    0.00
   6.900   11.99    0.27   -0.64   0.000   0.200   0.000    0.00
   6.950   11.99    0.51    0.04   0.000   0.200   0.000    0.00
   7.000   12.49   -1.08    0.40   0.000   0.200   0.000    0.00
   7.050   12.42    0.44   -0.85   0.000   0.200   0.000    0.00
   7.100   12.70    0.47   -0.39   0.000   0.200   0.000    0.00
   7.150   12.73    0.17   -0.52   0.000   0.200   0.000    0.00
   7.200   12.57   -3.32    0.43   0.000   0.200   0.000    0.00
   7.250   12.91   -2.31    1.07   0.000   0.200   0.000    0.00
   7.300   14.16    3.67    1.36   0.000   0.200   0.000    0.00
   7.350   13.71    2.06   -0.26   0.000   0.200   0.000    0.00
   7.400   13.35    0.52    0.07   0.000   0.200   0.000    0.00
   7.450   13.39    2.50   -0.03   0.000   0.200   0.000    0.00
   7.500   12.45    2.75   -0.32   0.000   0.200   0.000    0.00
   7.550   13.41   -1.92   -0.18   0.000   0.200   0.000    0.00
   7.600   13.07    0.99    1.39   0.000   0.200   0.000    0.00
   7.650   12.08   -1.22    1.90   0.000   0.200   0.000    0.00
   7.700   11.13   -4.76    0.16   0.000   0.200   0.000    0.00
   7.750   11.56   -4.53   -0.74   0.000   0.200   0.000    0.00
   7.800   11.92   -5.80    0.02   0.000   0.200   0.000    0.00
   7.850   11.63   -9.43   -0.29   0.000   0.200   0.000    0.00
   7.900   12.05   -7.63   -0.73   0.000   0.200   0.000    0.00
   7.950   12.31   -8.34   -1.78   0.000   0.200   0.000    0.00
   8.000   12.52   -9.11   -0.85   0.000   0.200   0.000    0.00
   8.050   12.70  -12.73   -0.97   0.000   0.200   0.000    0.00
   8.100   12.41  -11.18   -1.24   0.000   0.200   0.000    0.00
   8.150   13.34  -17.51   -0.36   0.000   0.200   0.000    0.00
   8.200   13.62   -8.39   -0.01   0.000   0.200   0.000    0.00
   8.250   13.36   -3.10   -0.97   0.000   0.200   0.000    0.00
   8.300   13.82    0.42   -1.16   0.000   0.200   0.000    0.00
   8.350   15.35    2.11   -2.11   0.000   0.200   0.000    0.00
   8.400   15.86    0.87   -2.92   0.000   0.200   0.000    0.00
   8.450   15.48   -1.83   -1.98   0.000   0.200   0.000    0.00
   8.500   15.24   -5.90   -1.22   0.000   0.200   0.000    0.00
   8.550   14.47   -7.17   -0.73   0.000   0.200   0.000    0.00
   8.600   14.33   -8.83   -0.05   0.000   0.200   0.000    0.00
   8.650   13.70   -8.29   -0.67   0.000   0.200   0.000    0.00
   8.700   13.82   -2.64   -1.17   0.000   0.200   0.000    0.00
   8.750   14.10   -0.81    0.05   0.000   0.200   0.000    0.00
   8.800   14.19   -5.92    0.99   0.000   0.200   0.000    0.00
   8.850   13.60    0.46    0.64   0.000   0.200   0.000    0.00
   8.900   13.36    4.35   -0.81   0.000   0.200   0.000    0.00
   8.950   13.05    3.14   -1.58   0.000   0.200   0.000    0.00
   9.000   13.41    5.26   -1.07   0.000   0.200   0.000    0.00
   9.050   13.99    6.78   -1.60   0.000   0.200   0.000    0.00
   9.100   13.42    5.50   -1.12   0.000   0.200   0.000    0.00
   9.150   13.71    0.58   -1.98   0.000   0.200   0.000    0.00
   9.200   13.92    5.54   -2.23   0.000   0.200   0.000    0.00
   9.250   13.51    0.66   -2.01   0.000   0.200   0.000    0.00
   9.300   13.89   -3.83   -1.43   0.000   0.200   0.000    0.00
   9.350   13.70   -3.60   -0.31   0.000   0.200   0.000    0.00
   9.400   13.72   -3.12   -0.26   0.000   0.200   0.000    0.00
   9.450   14.25   -5.87   -0.66   0.000   0.200   0.000    0.00
   9.500   15.01   -9.50   -1.26   0.000   0.200   0.000    0.00
   9.550   15.30  -17.12   -1.68   0.000   0.200   0.000    0.00
   9.600   15.51  -15.58   -3.09   0.000   0.200   0.000    0.00
   9.650   16.26  -15.98   -2.80   0.000   0.200   0.000    0.00
   9.700   16.46  -13.38   -2.95   0.000   0.200   0.000    0.00
   9.750   16.14  -10.15   -2.25   0.000   0.200   0.000    0.00
   9.800   15.57  -14.56   -2.98   0.000   0.200   0.000    0.00
   9.850   15.84  -12.98   -2.43   0.000   0.200   0.000    0.00
   9.900   16.33  -11.18   -1.25   0.000   0.200   0.000    0.00
   9.950   17.42   -8.47   -2.14   0.000   0.200   0.000    0.00
  10.000   17.30   -9.13   -3.24   0.000   0.200   0.000    0.00
  10.050   15.84   -6.99   -3.52   0.000   0.200   0.000    0.00
  10.100   15.65  -10.82   -3.08   0.000   0.200   0.000    0.00
  10.150   16.30  -12.96   -2.80   0.000   0.200   0.000    0.00
  10.200   15.22  -14.40   -2.98   0.000   0.200   0.000    0.00
  10.250   15.52  -18.63   -3.40   0.000   0.200   0.000    0.00
  10.300   15.59  -13.79   -3.04   0.000   0.200   0.000    0.00
  10.350   16.03  -11.94   -2.51   0.000   0.200   0.000    0.00
  10.400   14.96  -12.83   -1.52   0.000   0.200   0.000    0.00
  10.450   15.60  -11.79   -1.49   0.000   0.200   0.000    0.00
  10.500   16.39  -10.27    0.23   0.000   0.200   0.000    0.00
  10.550   15.86   -8.98    1.41   0.000   0.200   0.000    0.00
  10.600   16.56   -5.22    1.48   0.000   0.200   0.000    0.00
  10.650   16.20   -2.08    1.41   0.000   0.200   0.000    0.00
  10.700   15.45   -2.07    1.06   0.000   0.200   0.000    0.00
  10.750   14.49   -7.33    1.18   0.000   0.200   0.000    0.00
  10.800   14.94   -3.99    1.60   0.000   0.200   0.000    0.00
  10.850   16.19   -1.44    0.90   0.000   0.200   0.000    0.00
  10.900   17.51   -2.51    0.99   0.000   0.200   0.000    0.00
  10.950   15.59   -5.10    1.08   0.000   0.200   0.000    0.00
  11.000   16.69   -5.47    1.11   0.000   0.200   0.000    0.00
  11.050   17.74   -7.11    0.47   0.000   0.200   0.000    0.00
  11.100   18.36  -10.40    1.07   0.000   0.200   0.000    0.00
  11.150   17.28   -7.43    1.14   0.000   0.200   0.000    0.00
  11.200   18.18   -5.59    0.51   0.000   0.200   0.000    0.00
  11.250   16.38    1.84    0.33   0.000   0.200   0.000    0.00
  11.300   16.53    2.71   -0.21   0.000   0.200   0.000    0.00
  11.350   17.05    1.65   -0.78   0.000   0.200   0.000    0.00
  11.400   17.24    2.74    0.11   0.000   0.200   0.000    0.00
  11.450   17.59   -2.75   -0.40   0.000   0.200   0.000    0.00
  11.500   17.93   -3.02   -1.01   0.000   0.200   0.000    0.00
  11.550   18.27   -0.74   -0.63   0.000   0.200   0.000    0.00
  11.600   19.09   -1.98   -0.92   0.000   0.200   0.000    0.00
  11.650   18.48   -2.39    0.16   0.000   0.200   0.000    0.00
  11.700   17.38   -1.52    0.02   0.000   0.200   0.000    0.00
  11.750   17.63   -2.12    1.37   0.000   0.200   0.000    0.00
  11.800   17.81   -2.38    1.53   0.000   0.200   0.000    0.00
  11.850   17.36   -1.78    2.04   0.000   0.200   0.000    0.00
  11.900   18.17    0.31    2.06   0.000   0.200   0.000    0.00
  11.950   17.37   -2.52    2.07   0.000   0.200   0.000    0.00
  12.000   16.79   -4.83    2.42   0.000   0.200   0.000    0.00
  12.050   17.65   -5.53    1.82   0.000   0.200   0.000    0.00
  12.100   17.72   -4.68    1.68   0.000   0.200   0.000    0.00
  12.150   17.85   -6.43    1.01   0.000   0.200   0.000    0.00
  12.200   17.03   -4.51    1.77   0.000   0.200   0.000    0.00
  12.250   15.83   -3.60    2.55   0.000   0.200   0.000    0.00
  12.300   16.74   -2.93    2.11   0.000   0.200   0.000    0.00
  12.350   16.21   -1.92    0.56   0.000   0.200   0.000    0.00
  12.400   14.66    1.12    0.19   0.000   0.200   0.000    0.00
  12.450   14.96   -1.96   -0.01   0.000   0.200   0.000    0.00
  12.500   14.27   -0.71   -0.26   0.000   0.200   0.000    0.00
  12.550   14.21    1.67    0.65   0.000   0.200   0.000    0.00
  12.600   14.71    0.71    1.51   0.000   0.200   0.000    0.00
  12.650   14.33   -3.10    2.07   0.000   0.200   0.000    0.00
  12.700   14.32   -4.50    1.25   0.000   0.200   0.000    0.00
  12.750   14.62   -2.00    1.64   0.000   0.200   0.000    0.00
  12.800   15.08   -0.48    0.97   0.000   0.200   0.000    0.00
  12.850   14.68    1.20    0.10   0.000   0.200   0.000    0.00
  12.900   14.31   -0.73   -0.46   0.000   0.200   0.000    0.00
  12.950   13.90   -0.26    0.32   0.000   0.200   0.000    0.00
  13.000   14.79   -0.92    1.09   0.000   0.200   0.000    0.00
  13.050   15.63    1.61    0.79   0.000   0.200   0.000    0.00
  13.100   15.61   -0.76   -0.03   0.000   0.200   0.000    0.00
  13.150   15.63    0.37   -0.33   0.000   0.200   0.000    0.00
  13.200   16.06    0.76   -1.24   0.000   0.200   0.000    0.00
  13.250   15.50   -6.76   -1.51   0.000   0.200   0.000    0.00
  13.300   15.10  -11.92   -1.13   0.000   0.200   0.000    0.00
  13.350   15.17   -9.71   -1.05   0.000   0.200   0.000    0.00
  13.400   15.79   -5.32   -0.55   0.000   0.200   0.000    0.00
  13.450   16.40   -7.79   -0.12   0.000   0.200   0.000    0.00
  13.500   16.24   -9.41   -0.45   0.000   0.200   0.000    0.00
  13.550   14.88   -8.03   -0.70   0.000   0.200   0.000    0.00
  13.600   13.70   -6.66   -0.84   0.000   0.200   0.000    0.00
  13.650   14.11   -5.30   -1.22   0.000   0.200   0.000    0.00
  13.700   14.56  -13.49    0.35   0.000   0.200   0.000    0.00
  13.750   15.99  -11.34   -0.61   0.000   0.200   0.000    0.00
  13.800   15.65  -12.00   -1.93   0.000   0.200   0.000    0.00
  13.850   16.05  -10.62   -1.13   0.000   0.200   0.000    0.00
  13.900   16.49   -6.89   -0.83   0.000   0.200   0.000    0.00
  13.950   15.98   -8.06   -1.52   0.000   0.200   0.000    0.00
  14.000   16.23  -10.27   -1.88   0.000   0.200   0.000    0.00
  14.050   15.80   -4.67   -1.02   0.000   0.200   0.000    0.00
  14.100   15.75   -5.92   -0.94   0.000   0.200   0.000    0.00
  14.150   15.26   -9.18   -1.45   0.000   0.200   0.000    0.00
  14.200   15.99  -11.24   -0.23   0.000   0.200   0.000    0.00
  14.250   16.06  -10.75   -0.10   0.000   0.200   0.000    0.00
  14.300   16.52  -10.57   -0.69   0.000   0.200   0.000    0.00
  14.350   15.73  -12.44   -1.02   0.000   0.200   0.000    0.00
  14.400   15.96   -9.48   -1.09   0.000   0.200   0.000    0.00
  14.450   15.92  -13.04    0.60   0.000   0.200   0.000    0.00
  14.500   16.27  -19.85    0.95   0.000   0.200   0.000    0.00
  14.550   16.39  -19.51    0.98   0.000   0.200   0.000    0.00
  14.600   15.65  -20.43    0.84   0.000   0.200   0.000    0.00
  14.650   15.49  -21.42    1.41   0.000   0.200   0.000    0.00
  14.700   15.82  -22.96    1.86   0.000   0.200   0.000    0.00
  14.750   15.38  -23.18    2.05   0.000   0.200   0.000    0.00
  14.800   14.39  -20.32    2.06   0.000   0.200   0.000    0.00
  14.850   15.37  -16.89    2.60   0.000   0.200   0.000    0.00
  14.900   15.77  -18.42    2.26   0.000   0.200   0.000    0.00
  14.950   14.44  -17.54    1.79   0.000   0.200   0.000    0.00
  15.000   14.36  -18.90    1.79   0.000   0.200   0.000    0.00
  15.050   14.45  -21.41    2.39   0.000   0.200   0.000    0.00
  15.100   15.16  -25.48    1.84   0.000   0.200   0.000    0.00
  15.150   15.00  -25.83    2.63   0.000   0.200   0.000    0.00
  15.200   14.39  -26.26    1.86   0.000   0.200   0.000    0.00
  15.250   13.43  -21.27    2.67   0.000   0.200   0.000    0.00
  15.300   13.95  -20.42    2.45   0.000   0.200   0.000    0.00
  15.350   15.26  -18.30    1.30   0.000   0.200   0.000    0.00
  15.400   14.23  -18.21    1.62   0.000   0.200   0.000    0.00
  15.450   14.74  -18.20    1.76   0.000   0.200   0.000    0.00
  15.500   14.34  -15.56    1.18   0.000   0.200   0.000    0.00
  15.550   14.31  -14.45    0.03   0.000   0.200   0.000    0.00
  15.600   13.97  -12.82   -0.92   0.000   0.200   0.000    0.00
  15.650   13.64   -9.60    0.72   0.000   0.200   0.000    0.00
  15.700   13.95  -11.10    0.90   0.000   0.200   0.000    0.00
  15.750   14.55   -8.93    0.67   0.000   0.200   0.000    0.00
  15.800   14.35  -10.43    1.07   0.000   0.200   0.000    0.00
  15.850   13.79  -19.63   -0.08   0.000   0.200   0.000    0.00
  15.900   13.04  -22.38   -0.23   0.000   0.200   0.000    0.00
  15.950   14.54  -23.67   -0.42   0.000   0.200   0.000    0.00
  16.000   14.96  -20.98   -0.14   0.000   0.200   0.000    0.00
  16.050   14.88  -24.96    0.17   0.000   0.200   0.000    0.00
  16.100   14.12  -28.39    0.30   0.000   0.200   0.000    0.00
  16.150   14.70  -25.36    0.37   0.000   0.200   0.000    0.00
  16.200   15.29  -22.33    0.25   0.000   0.200   0.000    0.00
  16.250   15.40  -21.27    0.80   0.000   0.200   0.000    0.00
  16.300   14.70  -20.71    0.70   0.000   0.200   0.000    0.00
  16.350   14.35  -25.41   -0.24   0.000   0.200   0.000    0.00
  16.400   15.02  -24.27    0.98   0.000   0.200   0.000    0.00
  16.450   15.04  -20.39    0.35   0.000   0.200   0.000    0.00
  16.500   14.52  -21.93    0.00   0.000   0.200   0.000    0.00
  16.550   15.04  -20.76    0.23   0.000   0.200   0.000    0.00
  16.600   15.14  -23.49   -0.10   0.000   0.200   0.000    0.00
  16.650   15.21  -28.85   -0.27   0.000   0.200   0.000    0.00
  16.700   16.03  -28.30   -0.60   0.000   0.200   0.000    0.00
  16.750   17.64  -27.42   -0.57   0.000   0.200   0.000    0.00
  16.800   16.72  -29.08   -1.38   0.000   0.200   0.000    0.00
  16.850   15.66  -26.26   -1.10   0.000   0.200   0.000    0.00
  16.900   15.15  -19.69   -0.95   0.000   0.200   0.000    0.00
  16.950   14.87  -21.59   -0.52   0.000   0.200   0.000    0.00
  17.000   14.90  -21.66   -1.01   0.000   0.200   0.000    0.00
  17.050   15.36  -18.19   -2.33   0.000   0.200   0.000    0.00
  17.100   15.11  -17.74   -1.89   0.000   0.200   0.000    0.00
  17.150   15.60  -19.96   -1.62   0.000   0.200   0.000    0.00
  17.200   16.29  -22.88   -0.86   0.000   0.200   0.000    0.00
  17.250   16.45  -25.28   -1.01   0.000   0.200   0.000    0.00
  17.300   17.01  -22.95   -1.10   0.000   0.200   0.000    0.00
  17.350   16.09  -26.12   -0.74   0.000   0.200   0.000    0.00
  17.400   15.48  -27.54   -0.72   0.000   0.200   0.000    0.00
  17.450   15.02  -25.23   -0.43   0.000   0.200   0.000    0.00
  17.500   13.91  -21.91   -0.02   0.000   0.200   0.000    0.00
  17.550   14.68  -21.04    0.35   0.000   0.200   0.000    0.00
  17.600   14.94  -18.42   -0.02   0.000   0.200   0.000    0.00
  17.650   15.07  -19.31    0.94   0.000   0.200   0.000    0.00
  17.700   14.30  -22.38    1.43   0.000   0.200   0.000    0.00
  17.750   14.23  -16.85    1.28   0.000   0.200   0.000    0.00
  17.800   14.70  -15.01    1.96   0.000   0.200   0.000    0.00
  17.850   15.46  -17.43    1.67   0.000   0.200   0.000    0.00
  17.900   15.05  -18.26    2.46   0.000   0.200   0.000    0.00
  17.950   16.10  -19.40    3.08   0.000   0.200   0.000    0.00
  18.000   17.11  -21.13    1.86   0.000   0.200   0.000    0.00
  18.050   17.57  -20.40    0.74   0.000   0.200   0.000    0.00
  18.100   17.72  -16.14    0.82   0.000   0.200   0.000    0.00
  18.150   18.34  -19.77    0.41   0.000   0.200   0.000    0.00
  18.200   19.09  -19.64   -1.18   0.000   0.200   0.000    0.00
  18.250   18.67  -18.19   -0.78   0.000   0.200   0.000    0.00
  18.300   18.01  -19.98   -0.71   0.000   0.200   0.000    0.00
  18.350   17.17  -20.37   -1.01   0.000   0.200   0.000    0.00
  18.400   17.16  -19.68   -0.72   0.000   0.200   0.000    0.00
  18.450   17.93  -18.91   -0.69   0.000   0.200   0.000    0.00
  18.500   17.64  -18.54   -0.47   0.000   0.200   0.000    0.00
  18.550   18.27  -16.83   -1.17   0.000   0.200   0.000    0.00
  18.600   17.76  -16.82    0.03   0.000   0.200   0.000    0.00
  18.650   19.00  -15.11    0.24   0.000   0.200   0.000    0.00
  18.700   19.36  -19.83    0.37   0.000   0.200   0.000    0.00
  18.750   19.13  -22.26    0.57   0.000   0.200   0.000    0.00
  18.800   19.92  -22.42    0.42   0.000   0.200   0.000    0.00
  18.850   19.01  -17.49   -0.17   0.000   0.200   0.000    0.00
  18.900   18.30  -16.87   -0.95   0.000   0.200   0.000    0.00
  18.950   18.32  -20.14   -0.08   0.000   0.200   0.000    0.00
  19.000   17.57  -19.35    0.41   0.000   0.200   0.000    0.00
  19.050   18.18  -18.55    0.34   0.000   0.200   0.000    0.00
  19.100   18.21  -19.34   -0.15   0.000   0.200   0.000    0.00
  19.150   18.41  -20.10   -0.49   0.000   0.200   0.000    0.00
  19.200   18.55  -21.22   -0.32   0.000   0.200   0.000    0.00
  19.250   18.78  -17.81    0.16   0.000   0.200   0.000    0.00
  19.300   19.35  -21.91   -0.32   0.000   0.200   0.000    0.00
  19.350   18.24  -24.21    0.01   0.000   0.200   0.000    0.00
  19.400   19.04  -22.06   -0.33   0.000   0.200   0.000    0.00
  19.450   18.70  -23.01   -0.93   0.000   0.200   0.000    0.00
  19.500   18.58  -25.01   -1.28   0.000   0.200   0.000    0.00
  19.550   17.02  -25.39   -2.27   0.000   0.200   0.000    0.00
  19.600   16.59  -22.15   -1.53   0.000   0.200   0.000    0.00
  19.650   16.56  -19.82   -3.07   0.000   0.200   0.000    0.00
  19.700   16.89  -17.99   -2.95   0.000   0.200   0.000    0.00
  19.750   17.24  -18.72   -2.93   0.000   0.200   0.000    0.00
  19.800   17.20  -20.19   -2.02   0.000   0.200   0.000    0.00
  19.850   17.21  -18.59   -0.48   0.000   0.200   0.000    0.00
  19.900   17.36  -17.81   -0.70   0.000   0.200   0.000    0.00
  19.950   18.04  -18.50   -0.72   0.000   0.200   0.000    0.00
  20.000   17.97  -18.98    0.30   0.000   0.200   0.000    0.00
  20.050   17.87  -18.12   -0.04   0.000   0.200   0.000    0.00
  20.100   18.00  -18.73   -0.79   0.000   0.200   0.000    0.00
  20.150   17.30  -18.34   -1.85   0.000   0.200   0.000    0.00
  20.200   16.96  -19.63   -0.71   0.000   0.200   0.000    0.00
  20.250   16.88  -17.02   -0.19   0.000   0.200   0.000    0.00
  20.300   16.59  -15.09   -0.52   0.000   0.200   0.000    0.00
  20.350   17.31  -16.12   -0.32   0.000   0.200   0.000    0.00
  20.400   17.10  -12.21   -1.04   0.000   0.200   0.000    0.00
  20.450   16.77  -16.78   -1.52   0.000   0.200   0.000    0.00
  20.500   16.03  -22.07   -1.14   0.000   0.200   0.000    0.00
  20.550   15.20  -20.32   -0.68   0.000   0.200   0.000    0.00
  20.600   15.19  -18.27   -0.05   0.000   0.200   0.000    0.00
  20.650   14.55  -13.11   -0.07   0.000   0.200   0.000    0.00
  20.700   14.45  -11.02   -0.38   0.000   0.200   0.000    0.00
  20.750   15.80  -16.37   -0.35   0.000   0.200   0.000    0.00
  20.800   15.74  -15.86    0.49   0.000   0.200   0.000    0.00
  20.850   15.40  -18.48   -0.07   0.000   0.200   0.000    0.00
  20.900   16.10  -16.56   -0.15   0.000   0.200   0.000    0.00
  20.950   17.30  -12.97   -0.08   0.000   0.200   0.000    0.00
  21.000   16.43  -11.92   -0.72   0.000   0.200   0.000    0.00
  21.050   17.07  -11.21   -0.62   0.000   0.200   0.000    0.00
  21.100   16.46  -10.21   -1.09   0.000   0.200   0.000    0.00
  21.150   17.11  -14.06   -1.50   0.000   0.200   0.000    0.00
  21.200   16.78  -16.34   -1.25   0.000   0.200   0.000    0.00
  21.250   16.69  -14.01   -1.11   0.000   0.200   0.000    0.00
  21.300   17.25  -12.31   -2.49   0.000   0.200   0.000    0.00
  21.350   17.56   -7.60   -3.61   0.000   0.200   0.000    0.00
  21.400   18.31   -7.08   -3.44   0.000   0.200   0.000    0.00
  21.450   18.51  -10.59   -2.19   0.000   0.200   0.000    0.00
  21.500   17.60  -11.34   -2.61   0.000   0.200   0.000    0.00
  21.550   17.67  -11.50   -2.50   0.000   0.200   0.000    0.00
  21.600   17.81   -9.06   -2.09   0.000   0.200   0.000    0.00
  21.650   18.31   -7.61   -3.27   0.000   0.200   0.000    0.00
  21.700   17.49   -6.70   -3.09   0.000   0.200   0.000    0.00
  21.750   17.49   -6.69   -1.86   0.000   0.200   0.000    0.00
  21.800   16.46   -8.62   -1.40   0.000   0.200   0.000    0.00
  21.850   16.34   -6.04   -1.27   0.000   0.200   0.000    0.00
  21.900   16.67   -5.29   -1.32   0.000   0.200   0.000    0.00
  21.950   16.81   -3.84   -2.00   0.000   0.200   0.000    0.00
  22.000   16.94   -4.15   -0.94   0.000   0.200   0.000    0.00
  22.050   17.84   -4.86   -0.77   0.000   0.200   0.000    0.00
  22.100   17.86   -4.32   -1.85   0.000   0.200   0.000    0.00
  22.150   18.73   -7.36   -1.87   0.000   0.200   0.000    0.00
  22.200   19.28   -7.62   -1.90   0.000   0.200   0.000    0.00
  22.250   19.06   -8.45   -1.28   0.000   0.200   0.000    0.00
  22.300   18.80  -11.64   -1.63   0.000   0.200   0.000    0.00
  22.350   18.88  -10.83   -1.70   0.000   0.200   0.000    0.00