! This hub-height wind-speed file was generated by TurbSim (v1.06.00, 21-Sep-2012) on 16-Jun-2018 at 18:35:56.
!
! The requested statistics for this data were:
!    Mean Total Wind Speed =   13.000 m/s
!    Turbulence Intensity  =   16.531%
!
!   Time  HorSpd  WndDir  VerSpd  HorShr  VerShr  LnVShr  GstSpd
!  (sec)   (m/s)   (deg)   (m/s)     (-)     (-)     (-)   (m/s)
   0.000   14.53    8.87   -0.36   0.000   0.200   0.000    0.00
   0.050   14.36   10.94    0.33   0.000   0.200   0.000    0.00
   0.100   14.09    9.20    0.53   0.000   0.200   0.000    0.00
   0.150   13.98    7.15    0.05   0.000   0.200   0.000    0.00
   0.200   14.23    5.89   -0.38   0.000   0.200   0.000    0.00
   0.250   13.96    5.53   -0.67   0.000   0.200   0.000    0.00
   0.300   13.66    7.60   -0.17   0.000   0.200   0.000    0.00
   0.350   13.66    6.55   -0.52   0.000   0.200   0.000    0.00
   0.400   13.27    6.92    0.28   0.000   0.200   0.000    0.00
   0.450   12.84    4.74    1.06   0.000   0.200   0.000    0.00
   0.500   13.02    2.04    1.16   0.000   0.200   0.000    0.00
   0.550   12.89    0.68    1.33   0.000   0.200   0.000    0.00
   0.600   12.74    2.58    0.68   0.000   0.200   0.000    0.00
   0.650   13.20    1.69    0.66   0.000   0.200   0.000    0.00
   0.700   13.54    3.16    0.97   0.000   0.200   0.000    0.00
   0.750   13.50    2.09    0.95   0.000   0.200   0.000    0.00
   0.800   13.47    0.75    0.41   0.000   0.200   0.000    0.00
   0.850   13.61    1.18    0.59   0.000   0.200   0.000    0.00
   0.900   13.64    1.52    0.30   0.000   0.200   0.000    0.00
   0.950   13.15    1.42    0.19   0.000   0.200   0.000    0.00
   1.000   13.69    5.04   -0.18   0.000   0.200   0.000    0.00
   1.050   13.98    6.91   -0.59   0.000   0.200   0.000    0.00
   1.100   13.63    5.10   -0.53   0.000   0.200   0.000    0.00
   1.150   13.23    7.45   -0.04   0.000   0.200   0.000    0.00
   1.200   13.54    8.52   -0.52   0.000   0.200   0.000    0.00
   1.250   13.74    7.42   -0.76   0.000   0.200   0.000    0.00
   1.300   13.64    4.67   -0.31   0.000   0.200   0.000    0.00
   1.350   13.30    6.57    0.14   0.000   0.200   0.000    0.00
   1.400   13.37    3.27    0.26   0.000   0.200   0.000    0.00
   1.450   13.13    3.64    0.45   0.000   0.200   0.000    0.00
   1.500   12.95    4.63   -0.74   0.000   0.200   0.000    0.00
   1.550   13.37    3.04   -0.26   0.000   0.200   0.000    0.00
   1.600   13.44    1.63    0.74   0.000   0.200   0.000    0.00
   1.650   12.88    1.64    0.49   0.000   0.200   0.000    0.00
   1.700   13.09    1.55    0.59   0.000   0.200   0.000    0.00
   1.750   13.21    1.63    0.16   0.000   0.200   0.000    0.00
   1.800   13.23    0.74   -0.74   0.000   0.200   0.000    0.00
   1.850   13.33    0.28   -0.44   0.000   0.200   0.000    0.00
   1.900   13.30    4.96   -0.09   0.000   0.200   0.000    0.00
   1.950   13.09    3.26   -0.86   0.000   0.200   0.000    0.00
   2.000   12.97    2.49   -1.39   0.000   0.200   0.000    0.00
   2.050   13.21    1.49   -1.00   0.000   0.200   0.000    0.00
   2.100   13.58    0.94   -1.76   0.000   0.200   0.000    0.00
   2.150   13.94    2.53   -1.10   0.000   0.200   0.000    0.00
   2.200   14.28    1.40   -0.91   0.000   0.200   0.000    0.00
   2.250   14.57    2.78   -0.82   0.000   0.200   0.000    0.00
   2.300   14.49    0.33   -1.03   0.000   0.200   0.000    0.00
   2.350   14.71    0.99   -1.11   0.000   0.200   0.000    0.00
   2.400   14.56    3.19    0.36   0.000   0.200   0.000    0.00
   2.450   14.59    2.32    0.44   0.000   0.200   0.000    0.00
   2.500   15.32    3.20   -0.06   0.000   0.200   0.000    0.00
   2.550   14.88    3.94    0.24   0.000   0.200   0.000    0.00
   2.600   14.33    2.40   -0.22   0.000   0.200   0.000    0.00
   2.650   14.65    2.45   -0.76   0.000   0.200   0.000    0.00
   2.700   14.95    5.07   -0.47   0.000   0.200   0.000    0.00
   2.750   15.36    4.69   -0.69   0.000   0.200   0.000    0.00
   2.800   15.27    3.58   -0.39   0.000   0.200   0.000    0.00
   2.850   15.26    2.61   -0.59   0.000   0.200   0.000    0.00
   2.900   15.33   -1.92   -0.23   0.000   0.200   0.000    0.00
   2.950   15.23   -0.99   -0.92   0.000   0.200   0.000    0.00
   3.000   15.39   -1.90   -0.77   0.000   0.200   0.000    0.00
   3.050   15.44   -2.41   -0.19   0.000   0.200   0.000    0.00
   3.100   15.31   -2.14    0.27   0.000   0.200   0.000    0.00
   3.150   15.32   -0.16    0.58   0.000   0.200   0.000    0.00
   3.200   15.72    0.55    0.31   0.000   0.200   0.000    0.00
   3.250   15.22    2.08   -0.51   0.000   0.200   0.000    0.00
   3.300   14.97    1.43   -0.33   0.000   0.200   0.000    0.00
   3.350   14.82   -1.88   -0.82   0.000   0.200   0.000    0.00
   3.400   14.88    2.46   -1.13   0.000   0.200   0.000    0.00
   3.450   14.70    3.97   -1.00   0.000   0.200   0.000    0.00
   3.500   15.42    6.76   -1.02   0.000   0.200   0.000    0.00
   3.550   15.04    5.88   -0.94   0.000   0.200   0.000    0.00
   3.600   15.37    4.97   -0.70   0.000   0.200   0.000    0.00
   3.650   15.98    3.75   -0.09   0.000   0.200   0.000    0.00
   3.700   15.87    3.47   -0.18   0.000   0.200   0.000    0.00
   3.750   15.35    3.43   -0.71   0.000   0.200   0.000    0.00
   3.800   15.18    4.70   -0.72   0.000   0.200   0.000    0.00
   3.850   14.59    4.96   -0.53   0.000   0.200   0.000    0.00
   3.900   14.92    4.17    0.17   0.000   0.200   0.000    0.00
   3.950   15.12    4.90    0.38   0.000   0.200   0.000    0.00
   4.000   15.60    5.62    0.19   0.000   0.200   0.000    0.00
   4.050   15.97    4.94    0.62   0.000   0.200   0.000    0.00
   4.100   15.46    4.86    1.13   0.000   0.200   0.000    0.00
   4.150   15.31    2.67    0.07   0.000   0.200   0.000    0.00
   4.200   15.02    3.34   -0.30   0.000   0.200   0.000    0.00
   4.250   15.09    2.66    0.11   0.000   0.200   0.000    0.00
   4.300   14.90    4.00    0.20   0.000   0.200   0.000    0.00
   4.350   14.69    3.27    0.19   0.000   0.200   0.000    0.00
   4.400   14.44    5.89    0.14   0.000   0.200   0.000    0.00
   4.450   14.77    3.53    0.28   0.000   0.200   0.000    0.00
   4.500   14.95    4.62   -0.26   0.000   0.200   0.000    0.00
   4.550   15.54    3.29   -0.48   0.000   0.200   0.000    0.00
   4.600   15.18    3.01    0.39   0.000   0.200   0.000    0.00
   4.650   14.91    3.45    0.12   0.000   0.200   0.000    0.00
   4.700   14.74    6.08    0.28   0.000   0.200   0.000    0.00
   4.750   15.03    7.17    0.17   0.000   0.200   0.000    0.00
   4.800   14.95    4.66    0.34   0.000   0.200   0.000    0.00
   4.850   14.57    7.18    0.67   0.000   0.200   0.000    0.00
   4.900   14.60    9.20    0.84   0.000   0.200   0.000    0.00
   4.950   14.85   10.15    1.06   0.000   0.200   0.000    0.00
   5.000   15.12   10.75    0.62   0.000   0.200   0.000    0.00
   5.050   15.39    9.07    0.16   0.000   0.200   0.000    0.00
   5.100   15.57    7.42   -0.11   0.000   0.200   0.000    0.00
   5.150   15.59    6.32   -0.07   0.000   0.200   0.000    0.00
   5.200   16.16    5.65   -0.31   0.000   0.200   0.000    0.00
   5.250   15.06    5.05   -0.03   0.000   0.200   0.000    0.00
   5.300   14.97    5.76   -0.14   0.000   0.200   0.000    0.00
   5.350   14.68    5.39   -0.07   0.000   0.200   0.000    0.00
   5.400   15.14    5.59   -0.20   0.000   0.200   0.000    0.00
   5.450   15.71    7.59   -0.32   0.000   0.200   0.000    0.00
   5.500   16.02    6.09   -0.10   0.000   0.200   0.000    0.00
   5.550   16.15    5.53    0.44   0.000   0.200   0.000    0.00
   5.600   16.13    6.45   -0.04   0.000   0.200   0.000    0.00
   5.650   15.88    5.63   -0.49   0.000   0.200   0.000    0.00
   5.700   15.73    6.51   -0.82   0.000   0.200   0.000    0.00
   5.750   15.70    4.31   -0.94   0.000   0.200   0.000    0.00
   5.800   15.47    1.90   -0.34   0.000   0.200   0.000    0.00
   5.850   15.73    2.48   -0.22   0.000   0.200   0.000    0.00
   5.900   15.78    1.53    0.26   0.000   0.200   0.000    0.00
   5.950   16.32    4.22   -0.40   0.000   0.200   0.000    0.00
   6.000   16.55    3.08   -0.53   0.000   0.200   0.000    0.00
   6.050   16.41   -0.24   -0.03   0.000   0.200   0.000    0.00
   6.100   16.34    0.21    0.00   0.000   0.200   0.000    0.00
   6.150   16.26    0.81   -0.25   0.000   0.200   0.000    0.00
   6.200   16.49    1.36   -0.07   0.000   0.200   0.000    0.00
   6.250   16.64    3.89   -0.57   0.000   0.200   0.000    0.00
   6.300   16.05    4.50   -0.06   0.000   0.200   0.000    0.00
   6.350   15.74    4.71    0.19   0.000   0.200   0.000    0.00
   6.400   15.90    1.41    0.27   0.000   0.200   0.000    0.00
   6.450   15.97    0.99    0.70   0.000   0.200   0.000    0.00
   6.500   16.53    0.44   -0.27   0.000   0.200   0.000    0.00
   6.550   16.58    3.27    0.38   0.000   0.200   0.000    0.00
   6.600   16.72    2.64    0.68   0.000   0.200   0.000    0.00
   6.650   17.20    1.80    0.71   0.000   0.200   0.000    0.00
   6.700   17.50    3.62   -0.05   0.000   0.200   0.000    0.00
   6.750   16.95    3.49    0.22   0.000   0.200   0.000    0.00
   6.800   17.30    4.75   -0.31   0.000   0.200   0.000    0.00
   6.850   17.35    3.90   -0.40   0.000   0.200   0.000    0.00
   6.900   16.45    3.16   -0.13   0.000   0.200   0.000    0.00
   6.950   16.46    5.02   -0.32   0.000   0.200   0.000    0.00
   7.000   16.62    3.51   -0.15   0.000   0.200   0.000    0.00
   7.050   16.83    4.48   -0.25   0.000   0.200   0.000    0.00
   7.100   16.77    4.37    0.13   0.000   0.200   0.000    0.00
   7.150   16.44    5.44    0.15   0.000   0.200   0.000    0.00
   7.200   16.20    5.65   -0.01   0.000   0.200   0.000    0.00
   7.250   17.01    6.51    0.35   0.000   0.200   0.000    0.00
   7.300   17.35   10.70    0.68   0.000   0.200   0.000    0.00
   7.350   17.47    9.29    0.80   0.000   0.200   0.000    0.00
   7.400   17.57    9.02    0.38   0.000   0.200   0.000    0.00
   7.450   17.33    9.85    1.17   0.000   0.200   0.000    0.00
   7.500   17.39    9.67    0.84   0.000   0.200   0.000    0.00
   7.550   16.86   11.91    0.05   0.000   0.200   0.000    0.00
   7.600   17.03   10.34    0.21   0.000   0.200   0.000    0.00
   7.650   17.00    8.06    0.43   0.000   0.200   0.000    0.00
   7.700   16.55    7.32    0.56   0.000   0.200   0.000    0.00
   7.750   16.15    7.54    0.89   0.000   0.200   0.000    0.00
   7.800   15.78    9.15    1.24   0.000   0.200   0.000    0.00
   7.850   15.88    6.93    0.99   0.000   0.200   0.000    0.00
   7.900   15.95    4.87    0.47   0.000   0.200   0.000    0.00
   7.950   15.58    4.96   -0.09   0.000   0.200   0.000    0.00
   8.000   15.70    3.73    0.15   0.000   0.200   0.000    0.00
   8.050   15.71    4.72    0.71   0.000   0.200   0.000    0.00
   8.100   15.58    0.96    0.33   0.000   0.200   0.000    0.00
   8.150   15.17   -0.80   -0.43   0.000   0.200   0.000    0.00
   8.200   15.16   -0.65   -0.57   0.000   0.200   0.000    0.00
   8.250   15.06   -2.05   -0.53   0.000   0.200   0.000    0.00
   8.300   15.02   -4.65    0.66   0.000   0.200   0.000    0.00
   8.350   14.65   -5.83    0.46   0.000   0.200   0.000    0.00
   8.400   14.83   -6.41   -0.62   0.000   0.200   0.000    0.00
   8.450   14.89   -6.62   -1.32   0.000   0.200   0.000    0.00
   8.500   15.22   -6.57   -1.34   0.000   0.200   0.000    0.00
   8.550   15.49   -8.31   -0.46   0.000   0.200   0.000    0.00
   8.600   15.73   -5.81   -0.25   0.000   0.200   0.000    0.00
   8.650   15.81   -6.15   -0.59   0.000   0.200   0.000    0.00
   8.700   15.08   -6.48   -0.79   0.000   0.200   0.000    0.00
   8.750   15.23   -5.85   -0.66   0.000   0.200   0.000    0.00
   8.800   15.47   -5.64    0.19   0.000   0.200   0.000    0.00
   8.850   15.10   -4.48    0.19   0.000   0.200   0.000    0.00
   8.900   15.52   -5.12    0.58   0.000   0.200   0.000    0.00
   8.950   15.18   -3.33    1.12   0.000   0.200   0.000    0.00
   9.000   15.59   -4.08    0.78   0.000   0.200   0.000    0.00
   9.050   15.69   -4.65    0.59   0.000   0.200   0.000    0.00
   9.100   15.74   -2.33    0.69   0.000   0.200   0.000    0.00
   9.150   15.08   -5.14   -0.10   0.000   0.200   0.000    0.00
   9.200   14.98   -4.57    0.23   0.000   0.200   0.000    0.00
   9.250   15.22   -4.50    0.29   0.000   0.200   0.000    0.00
   9.300   15.28   -2.04    1.36   0.000   0.200   0.000    0.00
   9.350   16.11   -2.41    1.17   0.000   0.200   0.000    0.00
   9.400   15.61   -2.62    0.63   0.000   0.200   0.000    0.00
   9.450   15.44    0.17    0.86   0.000   0.200   0.000    0.00
   9.500   15.73   -1.29    0.69   0.000   0.200   0.000    0.00
   9.550   15.67   -1.88    0.85   0.000   0.200   0.000    0.00
   9.600   15.40    0.79    0.47   0.000   0.200   0.000    0.00
   9.650   15.44   -0.89    0.33   0.000   0.200   0.000    0.00
   9.700   15.06   -3.69    0.31   0.000   0.200   0.000    0.00
   9.750   15.39   -2.63   -0.18   0.000   0.200   0.000    0.00
   9.800   15.98   -1.45   -0.37   0.000   0.200   0.000    0.00
   9.850   16.18   -0.73   -0.63   0.000   0.200   0.000    0.00
   9.900   16.07   -2.14   -0.58   0.000   0.200   0.000    0.00
   9.950   15.44   -0.77    0.19   0.000   0.200   0.000    0.00
  10.000   15.58    0.90    0.10   0.000   0.200   0.000    0.00
  10.050   15.67   -0.69    0.19   0.000   0.200   0.000    0.00
  10.100   15.29   -3.98   -0.13   0.000   0.200   0.000    0.00
  10.150   15.34   -0.66    0.06   0.000   0.200   0.000    0.00
  10.200   15.06   -0.94   -0.11   0.000   0.200   0.000    0.00
  10.250   14.62    0.10    0.18   0.000   0.200   0.000    0.00
  10.300   14.73    1.19    0.53   0.000   0.200   0.000    0.00
  10.350   14.62    3.25   -0.08   0.000   0.200   0.000    0.00
  10.400   14.65    3.14   -0.43   0.000   0.200   0.000    0.00
  10.450   14.69    1.98   -0.42   0.000   0.200   0.000    0.00
  10.500   14.93   -0.19   -0.21   0.000   0.200   0.000    0.00
  10.550   15.32   -2.29    0.23   0.000   0.200   0.000    0.00
  10.600   15.20   -2.02    0.28   0.000   0.200   0.000    0.00
  10.650   15.54   -1.52    0.72   0.000   0.200   0.000    0.00
  10.700   15.69    1.25    0.57   0.000   0.200   0.000    0.00
  10.750   15.60    1.47    0.11   0.000   0.200   0.000    0.00
  10.800   15.59    0.94    0.18   0.000   0.200   0.000    0.00
  10.850   15.47    2.76    0.12   0.000   0.200   0.000    0.00
  10.900   15.47    3.96   -0.38   0.000   0.200   0.000    0.00
  10.950   15.58    2.39   -1.06   0.000   0.200   0.000    0.00
  11.000   15.55    4.58   -0.40   0.000   0.200   0.000    0.00
  11.050   15.52    4.86   -0.93   0.000   0.200   0.000    0.00
  11.100   15.17    3.99   -0.63   0.000   0.200   0.000    0.00
  11.150   14.73    4.81   -0.92   0.000   0.200   0.000    0.00
  11.200   14.84    4.99   -0.90   0.000   0.200   0.000    0.00
  11.250   15.37    4.64   -0.94   0.000   0.200   0.000    0.00
  11.300   15.10    5.36   -0.72   0.000   0.200   0.000    0.00
  11.350   15.65    6.46   -0.54   0.000   0.200   0.000    0.00
  11.400   15.60    5.98   -0.71   0.000   0.200   0.000    0.00
  11.450   15.62    5.56   -1.05   0.000   0.200   0.000    0.00
  11.500   15.06    2.60   -1.22   0.000   0.200   0.000    0.00
  11.550   14.57    4.73   -1.29   0.000   0.200   0.000    0.00
  11.600   14.05    3.13   -0.99   0.000   0.200   0.000    0.00
  11.650   13.80   -0.03   -0.78   0.000   0.200   0.000    0.00
  11.700   14.07   -0.97   -1.48   0.000   0.200   0.000    0.00
  11.750   14.33   -0.63   -2.06   0.000   0.200   0.000    0.00
  11.800   14.71    0.79   -1.82   0.000   0.200   0.000    0.00
  11.850   14.19   -0.56   -1.41   0.000   0.200   0.000    0.00
  11.900   14.54   -0.89   -1.08   0.000   0.200   0.000    0.00
  11.950   13.80    0.87   -1.26   0.000   0.200   0.000    0.00
  12.000   14.00    3.09   -1.38   0.000   0.200   0.000    0.00
  12.050   14.85    3.05   -1.63   0.000   0.200   0.000    0.00
  12.100   14.72    3.90   -2.28   0.000   0.200   0.000    0.00
  12.150   14.99    4.54   -2.42   0.000   0.200   0.000    0.00
  12.200   15.21    5.27   -1.72   0.000   0.200   0.000    0.00
  12.250   15.23    5.05   -2.70   0.000   0.200   0.000    0.00
  12.300   15.15    5.78   -2.72   0.000   0.200   0.000    0.00
  12.350   16.01    6.57   -3.18   0.000   0.200   0.000    0.00
  12.400   15.84    4.94   -2.48   0.000   0.200   0.000    0.00
  12.450   15.21    4.62   -2.74   0.000   0.200   0.000    0.00
  12.500   15.59    3.76   -2.32   0.000   0.200   0.000    0.00
  12.550   15.05    1.83   -2.40   0.000   0.200   0.000    0.00
  12.600   14.67   -0.84   -1.64   0.000   0.200   0.000    0.00
  12.650   14.58   -1.51   -0.88   0.000   0.200   0.000    0.00
  12.700   14.68   -0.81   -0.57   0.000   0.200   0.000    0.00
  12.750   14.63   -0.94   -0.53   0.000   0.200   0.000    0.00
  12.800   14.14   -2.51   -0.59   0.000   0.200   0.000    0.00
  12.850   14.49   -2.41    0.24   0.000   0.200   0.000    0.00
  12.900   14.20   -0.03   -0.07   0.000   0.200   0.000    0.00
  12.950   13.71    0.52   -0.55   0.000   0.200   0.000    0.00
  13.000   13.54    1.70   -1.11   0.000   0.200   0.000    0.00
  13.050   13.32    2.48   -0.47   0.000   0.200   0.000    0.00
  13.100   13.54    1.09   -0.41   0.000   0.200   0.000    0.00
  13.150   13.31   -0.69   -0.77   0.000   0.200   0.000    0.00
  13.200   13.43   -0.78   -0.85   0.000   0.200   0.000    0.00
  13.250   12.91    0.83   -1.42   0.000   0.200   0.000    0.00
  13.300   13.11    2.87   -1.24   0.000   0.200   0.000    0.00
  13.350   13.52    3.91   -0.96   0.000   0.200   0.000    0.00
  13.400   14.31    6.24   -0.68   0.000   0.200   0.000    0.00
  13.450   14.32    5.46   -0.56   0.000   0.200   0.000    0.00
  13.500   14.12    3.34   -0.79   0.000   0.200   0.000    0.00
  13.550   14.22    4.78   -0.23   0.000   0.200   0.000    0.00
  13.600   13.57    5.59   -0.09   0.000   0.200   0.000    0.00
  13.650   13.23    4.06   -0.26   0.000   0.200   0.000    0.00
  13.700   13.54    2.13   -1.00   0.000   0.200   0.000    0.00
  13.750   14.15    1.08   -1.18   0.000   0.200   0.000    0.00
  13.800   13.95   -1.89   -0.70   0.000   0.200   0.000    0.00
  13.850   14.52   -2.68   -1.30   0.000   0.200   0.000    0.00
  13.900   14.35   -2.17   -1.18   0.000   0.200   0.000    0.00
  13.950   14.07   -1.33   -1.41   0.000   0.200   0.000    0.00
  14.000   14.31    1.14   -0.60   0.000   0.200   0.000    0.00
  14.050   13.85    0.23   -0.38   0.000   0.200   0.000    0.00
  14.100   13.75   -1.44   -0.14   0.000   0.200   0.000    0.00
  14.150   13.74    0.12   -0.28   0.000   0.200   0.000    0.00
  14.200   13.67   -2.02    0.52   0.000   0.200   0.000    0.00
  14.250   13.94   -0.83    0.64   0.000   0.200   0.000    0.00
  14.300   14.49    1.90    0.24   0.000   0.200   0.000    0.00
  14.350   14.02    3.38    0.38   0.000   0.200   0.000    0.00
  14.400   14.16    2.28    0.51   0.000   0.200   0.000    0.00
  14.450   13.90    4.97    0.43   0.000   0.200   0.000    0.00
  14.500   14.04    7.85   -0.02   0.000   0.200   0.000    0.00
  14.550   14.21    7.13   -0.10   0.000   0.200   0.000    0.00
  14.600   13.81    8.44    0.02   0.000   0.200   0.000    0.00
  14.650   13.39    7.48    0.09   0.000   0.200   0.000    0.00
  14.700   13.62    5.60   -0.20   0.000   0.200   0.000    0.00
  14.750   13.46    6.92   -0.65   0.000   0.200   0.000    0.00
  14.800   13.61    8.42   -0.45   0.000   0.200   0.000    0.00
  14.850   13.34    7.92    0.64   0.000   0.200   0.000    0.00
  14.900   12.71    7.03    0.97   0.000   0.200   0.000    0.00
  14.950   13.26    8.57    1.10   0.000   0.200   0.000    0.00
  15.000   12.85    8.92    1.40   0.000   0.200   0.000    0.00
  15.050   12.59    8.36    1.93   0.000   0.200   0.000    0.00
  15.100   12.13    7.51    2.07   0.000   0.200   0.000    0.00
  15.150   12.62    8.54    1.19   0.000   0.200   0.000    0.00
  15.200   12.66    9.62    0.73   0.000   0.200   0.000    0.00
  15.250   12.20    9.67    0.22   0.000   0.200   0.000    0.00
  15.300   12.71    7.29    0.11   0.000   0.200   0.000    0.00
  15.350   12.51    7.70    0.65   0.000   0.200   0.000    0.00
  15.400   12.03    4.23    0.87   0.000   0.200   0.000    0.00
  15.450   11.58    4.92    1.47   0.000   0.200   0.000    0.00
  15.500   11.36    9.82    1.44   0.000   0.200   0.000    0.00
  15.550   11.83    9.07    1.87   0.000   0.200   0.000    0.00
  15.600   11.88    7.16    2.20   0.000   0.200   0.000    0.00
  15.650   11.81    5.24    2.40   0.000   0.200   0.000    0.00
  15.700   12.04    6.24    2.65   0.000   0.200   0.000    0.00
  15.750   12.24    4.23    2.30   0.000   0.200   0.000    0.00
  15.800   12.04    2.85    2.37   0.000   0.200   0.000    0.00
  15.850   11.91    1.98    2.33   0.000   0.200   0.000    0.00
  15.900   12.18    2.42    2.16   0.000   0.200   0.000    0.00
  15.950   12.14    4.37    2.47   0.000   0.200   0.000    0.00
  16.000   12.72    2.69    2.48   0.000   0.200   0.000    0.00
  16.050   12.71    4.05    2.57   0.000   0.200   0.000    0.00
  16.100   13.04    5.38    2.68   0.000   0.200   0.000    0.00
  16.150   13.44    6.35    2.69   0.000   0.200   0.000    0.00
  16.200   13.63    5.63    2.14   0.000   0.200   0.000    0.00
  16.250   13.98    8.90    1.49   0.000   0.200   0.000    0.00
  16.300   13.93    7.35    1.73   0.000   0.200   0.000    0.00
  16.350   14.34    7.30    1.95   0.000   0.200   0.000    0.00
  16.400   13.76    9.07    2.46   0.000   0.200   0.000    0.00
  16.450   13.98   11.47    2.36   0.000   0.200   0.000    0.00
  16.500   14.27   12.43    2.07   0.000   0.200   0.000    0.00
  16.550   13.76   11.12    1.73   0.000   0.200   0.000    0.00
  16.600   13.76   10.27    1.29   0.000   0.200   0.000    0.00
  16.650   13.80   11.17    1.16   0.000   0.200   0.000    0.00
  16.700   14.04    9.88    0.95   0.000   0.200   0.000    0.00
  16.750   14.04    9.15    1.19   0.000   0.200   0.000    0.00
  16.800   13.95    9.02    1.09   0.000   0.200   0.000    0.00
  16.850   13.73   10.20    0.66   0.000   0.200   0.000    0.00
  16.900   13.53    9.60    0.94   0.000   0.200   0.000    0.00
  16.950   13.66    5.96    0.91   0.000   0.200   0.000    0.00
  17.000   13.67    4.32    0.68   0.000   0.200   0.000    0.00
  17.050   13.26    2.21    0.85   0.000   0.200   0.000    0.00
  17.100   12.96    0.61   -0.24   0.000   0.200   0.000    0.00
  17.150   12.69   -1.38   -0.30   0.000   0.200   0.000    0.00
  17.200   13.05    0.38    0.61   0.000   0.200   0.000    0.00
  17.250   12.98    2.51    0.50   0.000   0.200   0.000    0.00
  17.300   13.18    1.76    0.88   0.000   0.200   0.000    0.00
  17.350   13.38    1.71    1.00   0.000   0.200   0.000    0.00
  17.400   13.43   -0.07    1.51   0.000   0.200   0.000    0.00
  17.450   13.64   -0.73    1.56   0.000   0.200   0.000    0.00
  17.500   13.80    1.20    1.00   0.000   0.200   0.000    0.00
  17.550   14.21    2.11    0.74   0.000   0.200   0.000    0.00
  17.600   14.02    3.97    0.60   0.000   0.200   0.000    0.00
  17.650   13.65    3.39    0.92   0.000   0.200   0.000    0.00
  17.700   13.69   -0.28    1.57   0.000   0.200   0.000    0.00
  17.750   13.67   -0.06    1.67   0.000   0.200   0.000    0.00
  17.800   13.94    0.60    1.74   0.000   0.200   0.000    0.00
  17.850   13.87    3.24    1.40   0.000   0.200   0.000    0.00
  17.900   14.14    1.69    1.81   0.000   0.200   0.000    0.00
  17.950   14.22    0.36    1.15   0.000   0.200   0.000    0.00
  18.000   13.64    2.68    0.67   0.000   0.200   0.000    0.00
  18.050   14.20    5.93    0.72   0.000   0.200   0.000    0.00
  18.100   14.68    6.18    0.17   0.000   0.200   0.000    0.00
  18.150   14.69    6.43    0.05   0.000   0.200   0.000    0.00
  18.200   14.26    6.13    0.13   0.000   0.200   0.000    0.00
  18.250   13.97    3.87    0.13   0.000   0.200   0.000    0.00
  18.300   14.54    2.33   -0.18   0.000   0.200   0.000    0.00
  18.350   14.93   -1.19   -0.22   0.000   0.200   0.000    0.00
  18.400   14.63   -1.54    0.10   0.000   0.200   0.000    0.00
  18.450   14.10   -0.92   -0.01   0.000   0.200   0.000    0.00
  18.500   14.08   -1.60   -0.48   0.000   0.200   0.000    0.00
  18.550   14.31   -0.96   -1.32   0.000   0.200   0.000    0.00
  18.600   14.34   -2.49   -0.66   0.000   0.200   0.000    0.00
  18.650   14.33   -0.50   -0.12   0.000   0.200   0.000    0.00
  18.700   14.21    0.40   -0.04   0.000   0.200   0.000    0.00
  18.750   14.47   -1.04   -0.14   0.000   0.200   0.000    0.00
  18.800   14.15    0.31   -0.31   0.000   0.200   0.000    0.00
  18.850   14.38    0.36   -0.20   0.000   0.200   0.000    0.00
  18.900   14.56    0.30    0.25   0.000   0.200   0.000    0.00
  18.950   14.81    0.90    0.14   0.000   0.200   0.000    0.00
  19.000   14.84   -0.59    0.07   0.000   0.200   0.000    0.00
  19.050   14.69   -2.60    0.13   0.000   0.200   0.000    0.00
  19.100   14.44   -0.18    0.19   0.000   0.200   0.000    0.00
  19.150   14.83    0.15    0.13   0.000   0.200   0.000    0.00
  19.200   14.93    0.48    0.68   0.000   0.200   0.000    0.00
  19.250   14.90   -1.85    0.75   0.000   0.200   0.000    0.00
  19.300   14.67    0.20    1.16   0.000   0.200   0.000    0.00
  19.350   14.96    3.33    0.95   0.000   0.200   0.000    0.00
  19.400   14.73    2.06    0.44   0.000   0.200   0.000    0.00
  19.450   15.00    5.39    0.20   0.000   0.200   0.000    0.00
  19.500   14.32    3.96    0.22   0.000   0.200   0.000    0.00
  19.550   13.75   -0.81    0.67   0.000   0.200   0.000    0.00
  19.600   14.05    0.18    0.10   0.000   0.200   0.000    0.00
  19.650   14.00    2.01   -0.20   0.000   0.200   0.000    0.00
  19.700   13.72    0.33    0.03   0.000   0.200   0.000    0.00
  19.750   13.58    1.05   -0.21   0.000   0.200   0.000    0.00
  19.800   13.57    0.21   -0.59   0.000   0.200   0.000    0.00
  19.850   13.82   -2.34   -0.30   0.000   0.200   0.000    0.00
  19.900   13.97   -2.41   -0.21   0.000   0.200   0.000    0.00
  19.950   14.11   -1.83    0.69   0.000   0.200   0.000    0.00
  20.000   14.29   -5.75    0.71   0.000   0.200   0.000    0.00
  20.050   14.08   -5.60    0.84   0.000   0.200   0.000    0.00
  20.100   14.59   -3.46    1.29   0.000   0.200   0.000    0.00
  20.150   14.52   -3.05    1.73   0.000   0.200   0.000    0.00
  20.200   14.14   -0.32    1.16   0.000   0.200   0.000    0.00
  20.250   14.46    0.58    0.16   0.000   0.200   0.000    0.00
  20.300   14.19   -2.21   -0.56   0.000   0.200   0.000    0.00
  20.350   14.08   -1.67   -0.85   0.000   0.200   0.000    0.00
  20.400   14.12   -0.21   -0.67   0.000   0.200   0.000    0.00
  20.450   14.10    2.22   -0.27   0.000   0.200   0.000    0.00
  20.500   14.03    1.27   -0.84   0.000   0.200   0.000    0.00
  20.550   13.44    0.33   -0.79   0.000   0.200   0.000    0.00
  20.600   13.29   -0.56   -0.48   0.000   0.200   0.000    0.00
  20.650   13.19   -0.63   -0.71   0.000   0.200   0.000    0.00
  20.700   13.43   -3.17    0.56   0.000   0.200   0.000    0.00
  20.750   13.88   -4.64    0.37   0.000   0.200   0.000    0.00
  20.800   13.75   -4.19    0.30   0.000   0.200   0.000    0.00
  20.850   13.82   -7.03   -0.11   0.000   0.200   0.000    0.00
  20.900   13.31   -4.80   -0.33   0.000   0.200   0.000    0.00
  20.950   13.65   -4.27   -0.29   0.000   0.200   0.000    0.00
  21.000   14.09   -3.21    0.39   0.000   0.200   0.000    0.00
  21.050   13.81   -3.79    0.34   0.000   0.200   0.000    0.00
  21.100   14.40   -1.94    0.16   0.000   0.200   0.000    0.00
  21.150   14.93   -1.18    0.65   0.000   0.200   0.000    0.00
  21.200   15.10   -1.89    0.84   0.000   0.200   0.000    0.00
  21.250   14.91   -2.10    1.09   0.000   0.200   0.000    0.00
  21.300   14.82   -4.60    0.59   0.000   0.200   0.000    0.00
  21.350   14.99   -6.71    0.70   0.000   0.200   0.000    0.00
  21.400   15.10   -6.50    1.10   0.000   0.200   0.000    0.00
  21.450   14.84   -5.70    1.66   0.000   0.200   0.000    0.00
  21.500   14.59   -3.87    1.51   0.000   0.200   0.000    0.00
  21.550   14.47   -4.87    1.08   0.000   0.200   0.000    0.00
  21.600   14.46   -4.80    1.12   0.000   0.200   0.000    0.00
  21.650   14.43   -4.57    1.28   0.000   0.200   0.000    0.00
  21.700   14.62   -2.42    1.24   0.000   0.200   0.000    0.00
  21.750   14.31    0.65    1.77   0.000   0.200   0.000    0.00
  21.800   14.39   -1.08    1.72   0.000   0.200   0.000    0.00
  21.850   14.27   -3.14    1.87   0.000   0.200   0.000    0.00
  21.900   13.93   -2.36    1.67   0.000   0.200   0.000    0.00
  21.950   13.74   -3.72    1.39   0.000   0.200   0.000    0.00
  22.000   13.69   -6.20    1.84   0.000   0.200   0.000    0.00
  22.050   14.01   -7.68    1.81   0.000   0.200   0.000    0.00
  22.100   14.38   -6.57    1.50   0.000   0.200   0.000    0.00
  22.150   13.94   -5.46    1.63   0.000   0.200   0.000    0.00
  22.200   13.87   -5.25    1.40   0.000   0.200   0.000    0.00
  22.250   13.81   -7.65    1.13   0.000   0.200   0.000    0.00
  22.300   14.19   -9.46    0.97   0.000   0.200   0.000    0.00
  22.350   13.61   -8.81    0.96   0.000   0.200   0.000    0.00