! This hub-height wind-speed file was generated by TurbSim (v1.06.00, 21-Sep-2012) on 16-Jun-2018 at 18:38:26.
!
! The requested statistics for this data were:
!    Mean Total Wind Speed =    7.000 m/s
!    Turbulence Intensity  =   38.848%
!
!   Time  HorSpd  WndDir  VerSpd  HorShr  VerShr  LnVShr  GstSpd
!  (sec)   (m/s)   (deg)   (m/s)     (-)     (-)     (-)   (m/s)
   0.000    4.71   16.06    0.50   0.000   0.200   0.000    0.00
   0.050    4.93   17.69   -0.24   0.000   0.200   0.000    0.00
   0.100    5.06   18.45   -0.80   0.000   0.200   0.000    0.00
   0.150    5.81   13.95   -0.64   0.000   0.200   0.000    0.00
   0.200    6.15    6.45   -0.45   0.000   0.200   0.000    0.00
   0.250    5.57    8.25   -0.27   0.000   0.200   0.000    0.00
   0.300    5.20    9.23   -0.32   0.000   0.200   0.000    0.00
   0.350    5.08    3.85   -0.36   0.000   0.200   0.000    0.00
   0.400    4.44    5.54   -0.59   0.000   0.200   0.000    0.00
   0.450    4.90    8.50   -0.46   0.000   0.200   0.000    0.00
   0.500    4.48   12.72   -0.20   0.000   0.200   0.000    0.00
   0.550    4.10    3.15    0.30   0.000   0.200   0.000    0.00
   0.600    4.88   -0.69    0.00   0.000   0.200   0.000    0.00
   0.650    4.64    6.04   -1.03   0.000   0.200   0.000    0.00
   0.700    4.17    6.32   -0.87   0.000   0.200   0.000    0.00
   0.750    4.62    5.87   -1.18   0.000   0.200   0.000    0.00
   0.800    4.78   11.77   -0.74   0.000   0.200   0.000    0.00
   0.850    4.65   16.45   -0.50   0.000   0.200   0.000    0.00
   0.900    4.41   17.44   -0.87   0.000   0.200   0.000    0.00
   0.950    5.24   11.07   -1.35   0.000   0.200   0.000    0.00
   1.000    5.80    7.14   -1.44   0.000   0.200   0.000    0.00
   1.050    5.71    4.00   -1.27   0.000   0.200   0.000    0.00
   1.100    5.32    4.07   -1.22   0.000   0.200   0.000    0.00
   1.150    5.55   -3.82   -1.09   0.000   0.200   0.000    0.00
   1.200    5.19   -3.93   -0.88   0.000   0.200   0.000    0.00
   1.250    5.11   -9.04   -0.27   0.000   0.200   0.000    0.00
   1.300    5.52    1.39   -0.50   0.000   0.200   0.000    0.00
   1.350    5.70   -0.42   -1.06   0.000   0.200   0.000    0.00
   1.400    5.41   -1.13   -0.80   0.000   0.200   0.000    0.00
   1.450    5.39   -8.03   -1.26   0.000   0.200   0.000    0.00
   1.500    4.91   -9.72   -1.43   0.000   0.200   0.000    0.00
   1.550    5.40   -3.83   -1.35   0.000   0.200   0.000    0.00
   1.600    5.26   -5.41   -1.14   0.000   0.200   0.000    0.00
   1.650    5.81   -9.84   -1.29   0.000   0.200   0.000    0.00
   1.700    5.74  -18.89   -1.99   0.000   0.200   0.000    0.00
   1.750    5.28  -20.15   -1.39   0.000   0.200   0.000    0.00
   1.800    5.63  -15.50   -1.42   0.000   0.200   0.000    0.00
   1.850    5.55   -8.68   -1.11   0.000   0.200   0.000    0.00
   1.900    5.08   -5.11   -1.13   0.000   0.200   0.000    0.00
   1.950    5.27   -7.37   -0.53   0.000   0.200   0.000    0.00
   2.000    4.72   -6.17    0.16   0.000   0.200   0.000    0.00
   2.050    5.05   -0.77    0.11   0.000   0.200   0.000    0.00
   2.100    4.89  -11.16   -0.49   0.000   0.200   0.000    0.00
   2.150    4.62  -10.02   -0.38   0.000   0.200   0.000    0.00
   2.200    5.29   -5.34   -0.41   0.000   0.200   0.000    0.00
   2.250    5.57   -7.55   -0.51   0.000   0.200   0.000    0.00
   2.300    5.74   -6.60   -0.61   0.000   0.200   0.000    0.00
   2.350    5.91  -10.96   -1.21   0.000   0.200   0.000    0.00
   2.400    6.19  -13.73   -0.92   0.000   0.200   0.000    0.00
   2.450    6.40  -12.62   -1.27   0.000   0.200   0.000    0.00
   2.500    5.92  -12.65   -1.64   0.000   0.200   0.000    0.00
   2.550    6.11   -9.62   -2.08   0.000   0.200   0.000    0.00
   2.600    6.32  -13.92   -1.75   0.000   0.200   0.000    0.00
   2.650    6.81  -12.49   -2.02   0.000   0.200   0.000    0.00
   2.700    6.97   -7.31   -1.30   0.000   0.200   0.000    0.00
   2.750    6.96   -9.05   -1.19   0.000   0.200   0.000    0.00
   2.800    7.12  -13.03   -0.58   0.000   0.200   0.000    0.00
   2.850    7.03  -12.00   -0.30   0.000   0.200   0.000    0.00
   2.900    6.12  -17.82   -0.15   0.000   0.200   0.000    0.00
   2.950    5.55  -12.83   -0.61   0.000   0.200   0.000    0.00
   3.000    6.02   -5.65    0.19   0.000   0.200   0.000    0.00
   3.050    6.20   -7.02   -0.02   0.000   0.200   0.000    0.00
   3.100    6.37   -4.83   -0.61   0.000   0.200   0.000    0.00
   3.150    6.73   -7.12   -1.29   0.000   0.200   0.000    0.00
   3.200    6.33  -10.70   -1.51   0.000   0.200   0.000    0.00
   3.250    6.71  -13.13   -2.16   0.000   0.200   0.000    0.00
   3.300    6.72  -10.50   -2.27   0.000   0.200   0.000    0.00
   3.350    6.81   -7.57   -1.73   0.000   0.200   0.000    0.00
   3.400    7.07   -8.13   -1.34   0.000   0.200   0.000    0.00
   3.450    6.61   -5.98   -1.31   0.000   0.200   0.000    0.00
   3.500    6.33   -8.26   -1.69   0.000   0.200   0.000    0.00
   3.550    6.33   -0.28   -1.92   0.000   0.200   0.000    0.00
   3.600    5.70    5.30   -1.92   0.000   0.200   0.000    0.00
   3.650    5.61    4.65   -1.95   0.000   0.200   0.000    0.00
   3.700    5.89   -5.86   -1.57   0.000   0.200   0.000    0.00
   3.750    6.06   -5.54   -1.46   0.000   0.200   0.000    0.00
   3.800    5.60   -8.37   -1.46   0.000   0.200   0.000    0.00
   3.850    6.02   -8.60   -1.06   0.000   0.200   0.000    0.00
   3.900    6.72   -5.83   -0.63   0.000   0.200   0.000    0.00
   3.950    7.00   -2.42   -0.79   0.000   0.200   0.000    0.00
   4.000    6.72   -4.64   -1.53   0.000   0.200   0.000    0.00
   4.050    6.80   -0.73   -1.62   0.000   0.200   0.000    0.00
   4.100    6.53    4.87   -1.57   0.000   0.200   0.000    0.00
   4.150    6.79    5.63   -1.42   0.000   0.200   0.000    0.00
   4.200    7.59    3.24   -1.17   0.000   0.200   0.000    0.00
   4.250    6.97   10.03   -1.52   0.000   0.200   0.000    0.00
   4.300    7.07    4.41   -1.13   0.000   0.200   0.000    0.00
   4.350    6.63    9.10   -1.57   0.000   0.200   0.000    0.00
   4.400    6.61   10.84   -1.09   0.000   0.200   0.000    0.00
   4.450    6.80   10.93   -1.08   0.000   0.200   0.000    0.00
   4.500    6.15   20.44   -0.68   0.000   0.200   0.000    0.00
   4.550    5.92   16.18   -0.61   0.000   0.200   0.000    0.00
   4.600    5.73   17.37   -0.92   0.000   0.200   0.000    0.00
   4.650    5.96   21.49   -0.79   0.000   0.200   0.000    0.00
   4.700    6.46   18.00   -1.01   0.000   0.200   0.000    0.00
   4.750    6.80   17.55   -0.72   0.000   0.200   0.000    0.00
   4.800    6.98   16.78   -0.23   0.000   0.200   0.000    0.00
   4.850    7.13   11.46   -0.57   0.000   0.200   0.000    0.00
   4.900    7.15    5.74   -0.89   0.000   0.200   0.000    0.00
   4.950    7.17    4.07   -0.63   0.000   0.200   0.000    0.00
   5.000    7.01    4.94   -1.13   0.000   0.200   0.000    0.00
   5.050    6.62    9.18   -0.74   0.000   0.200   0.000    0.00
   5.100    6.49   12.37   -0.31   0.000   0.200   0.000    0.00
   5.150    7.03    7.71   -0.78   0.000   0.200   0.000    0.00
   5.200    6.46   10.11   -0.84   0.000   0.200   0.000    0.00
   5.250    6.52    6.68    0.00   0.000   0.200   0.000    0.00
   5.300    6.53    3.98    0.68   0.000   0.200   0.000    0.00
   5.350    6.95    8.47   -0.01   0.000   0.200   0.000    0.00
   5.400    7.17   10.37   -0.71   0.000   0.200   0.000    0.00
   5.450    6.99   11.23   -0.24   0.000   0.200   0.000    0.00
   5.500    7.30   14.88   -0.11   0.000   0.200   0.000    0.00
   5.550    7.04   16.31    0.01   0.000   0.200   0.000    0.00
   5.600    6.69   20.76   -0.27   0.000   0.200   0.000    0.00
   5.650    6.81   23.33   -0.55   0.000   0.200   0.000    0.00
   5.700    6.43   22.49   -0.61   0.000   0.200   0.000    0.00
   5.750    5.90   18.05   -1.31   0.000   0.200   0.000    0.00
   5.800    5.35   28.75   -1.29   0.000   0.200   0.000    0.00
   5.850    5.97   30.80   -1.57   0.000   0.200   0.000    0.00
   5.900    5.77   29.92   -2.14   0.000   0.200   0.000    0.00
   5.950    6.07   26.58   -2.25   0.000   0.200   0.000    0.00
   6.000    6.88   25.19   -2.92   0.000   0.200   0.000    0.00
   6.050    6.81   17.13   -3.32   0.000   0.200   0.000    0.00
   6.100    6.91   19.52   -3.06   0.000   0.200   0.000    0.00
   6.150    7.33   27.71   -2.70   0.000   0.200   0.000    0.00
   6.200    7.61   29.71   -1.79   0.000   0.200   0.000    0.00
   6.250    7.91   31.41   -2.34   0.000   0.200   0.000    0.00
   6.300    7.93   29.78   -2.02   0.000   0.200   0.000    0.00
   6.350    7.30   31.34   -2.09   0.000   0.200   0.000    0.00
   6.400    6.64   37.14   -1.17   0.000   0.200   0.000    0.00
   6.450    6.74   40.52   -0.67   0.000   0.200   0.000    0.00
   6.500    7.36   35.76   -1.00   0.000   0.200   0.000    0.00
   6.550    7.78   34.19   -0.74   0.000   0.200   0.000    0.00
   6.600    8.01   34.93   -1.13   0.000   0.200   0.000    0.00
   6.650    8.06   33.70   -1.86   0.000   0.200   0.000    0.00
   6.700    7.93   37.14   -1.50   0.000   0.200   0.000    0.00
   6.750    8.11   35.87   -1.29   0.000   0.200   0.000    0.00
   6.800    8.09   31.39   -1.77   0.000   0.200   0.000    0.00
   6.850    8.37   33.10   -2.00   0.000   0.200   0.000    0.00
   6.900    8.64   34.64   -2.04   0.000   0.200   0.000    0.00
   6.950    8.75   35.77   -1.85   0.000   0.200   0.000    0.00
   7.000    8.56   38.87   -2.01   0.000   0.200   0.000    0.00
   7.050    8.54   36.75   -2.41   0.000   0.200   0.000    0.00
   7.100    8.05   34.91   -1.96   0.000   0.200   0.000    0.00
   7.150    8.04   31.38   -1.53   0.000   0.200   0.000    0.00
   7.200    7.82   30.40   -1.71   0.000   0.200   0.000    0.00
   7.250    8.07   28.21   -1.58   0.000   0.200   0.000    0.00
   7.300    8.31   29.60   -1.72   0.000   0.200   0.000    0.00
   7.350    8.90   31.01   -1.11   0.000   0.200   0.000    0.00
   7.400    8.60   33.51   -1.29   0.000   0.200   0.000    0.00
   7.450    8.52   33.88   -1.76   0.000   0.200   0.000    0.00
   7.500    8.98   32.31   -1.40   0.000   0.200   0.000    0.00
   7.550    8.30   29.02   -1.09   0.000   0.200   0.000    0.00
   7.600    8.18   27.90   -1.34   0.000   0.200   0.000    0.00
   7.650    8.00   27.73   -1.53   0.000   0.200   0.000    0.00
   7.700    8.10   27.44   -1.33   0.000   0.200   0.000    0.00
   7.750    7.89   28.20   -0.80   0.000   0.200   0.000    0.00
   7.800    7.90   27.48   -1.15   0.000   0.200   0.000    0.00
   7.850    8.61   30.70   -1.29   0.000   0.200   0.000    0.00
   7.900    8.80   29.61   -1.15   0.000   0.200   0.000    0.00
   7.950    8.23   30.81   -0.65   0.000   0.200   0.000    0.00
   8.000    8.17   31.79   -1.20   0.000   0.200   0.000    0.00
   8.050    8.22   26.42   -1.79   0.000   0.200   0.000    0.00
   8.100    8.28   23.06   -1.97   0.000   0.200   0.000    0.00
   8.150    7.99   23.63   -1.24   0.000   0.200   0.000    0.00
   8.200    8.01   20.44   -1.58   0.000   0.200   0.000    0.00
   8.250    8.21   17.91   -1.31   0.000   0.200   0.000    0.00
   8.300    8.01   15.21   -1.19   0.000   0.200   0.000    0.00
   8.350    8.45    8.89   -1.17   0.000   0.200   0.000    0.00
   8.400    8.02   13.68   -1.23   0.000   0.200   0.000    0.00
   8.450    7.72   15.93   -1.21   0.000   0.200   0.000    0.00
   8.500    7.66   12.61   -1.16   0.000   0.200   0.000    0.00
   8.550    7.63   15.77   -1.58   0.000   0.200   0.000    0.00
   8.600    7.55   10.93   -1.39   0.000   0.200   0.000    0.00
   8.650    8.10    6.16   -1.50   0.000   0.200   0.000    0.00
   8.700    7.98    6.19   -1.13   0.000   0.200   0.000    0.00
   8.750    8.52    5.97   -1.34   0.000   0.200   0.000    0.00
   8.800    8.30    4.51   -1.28   0.000   0.200   0.000    0.00
   8.850    8.82    7.80   -1.34   0.000   0.200   0.000    0.00
   8.900    8.65   14.68   -1.05   0.000   0.200   0.000    0.00
   8.950    8.67   11.31   -0.61   0.000   0.200   0.000    0.00
   9.000    9.48   15.03   -0.60   0.000   0.200   0.000    0.00
   9.050    9.72    9.80   -0.69   0.000   0.200   0.000    0.00
   9.100    9.51    9.60   -1.11   0.000   0.200   0.000    0.00
   9.150    9.15   11.56   -1.23   0.000   0.200   0.000    0.00
   9.200    9.21    7.50   -1.14   0.000   0.200   0.000    0.00
   9.250    9.77    7.06   -1.27   0.000   0.200   0.000    0.00
   9.300    9.67    6.52   -0.68   0.000   0.200   0.000    0.00
   9.350    9.96    6.21   -0.80   0.000   0.200   0.000    0.00
   9.400    9.90    2.92   -0.77   0.000   0.200   0.000    0.00
   9.450    9.51    3.04   -0.29   0.000   0.200   0.000    0.00
   9.500    9.77   -0.26    0.15   0.000   0.200   0.000    0.00
   9.550    9.99    2.58    0.35   0.000   0.200   0.000    0.00
   9.600    8.83    7.01    0.29   0.000   0.200   0.000    0.00
   9.650    8.26    9.09    0.87   0.000   0.200   0.000    0.00
   9.700    8.69   10.01    0.89   0.000   0.200   0.000    0.00
   9.750    8.49   15.17    0.65   0.000   0.200   0.000    0.00
   9.800    8.56   14.31    0.94   0.000   0.200   0.000    0.00
   9.850    8.38   14.81    0.21   0.000   0.200   0.000    0.00
   9.900    8.04   15.48   -0.34   0.000   0.200   0.000    0.00
   9.950    8.53   16.49   -0.01   0.000   0.200   0.000    0.00
  10.000    8.21   13.09    0.25   0.000   0.200   0.000    0.00
  10.050    8.15    9.18   -0.26   0.000   0.200   0.000    0.00
  10.100    8.13    7.49   -1.01   0.000   0.200   0.000    0.00
  10.150    8.14    2.76   -0.34   0.000   0.200   0.000    0.00
  10.200    8.30    4.13    0.21   0.000   0.200   0.000    0.00
  10.250    8.37    3.88    0.35   0.000   0.200   0.000    0.00
  10.300    8.27    2.84    0.44   0.000   0.200   0.000    0.00
  10.350    7.87    0.02    0.88   0.000   0.200   0.000    0.00
  10.400    6.82    3.08    0.33   0.000   0.200   0.000    0.00
  10.450    7.88    4.42   -0.36   0.000   0.200   0.000    0.00
  10.500    7.45    8.38   -0.01   0.000   0.200   0.000    0.00
  10.550    7.74    7.09   -0.54   0.000   0.200   0.000    0.00
  10.600    8.06    5.54   -0.41   0.000   0.200   0.000    0.00
  10.650    8.05    7.87   -0.88   0.000   0.200   0.000    0.00
  10.700    8.37   11.49   -0.78   0.000   0.200   0.000    0.00
  10.750    8.43   13.21   -0.64   0.000   0.200   0.000    0.00
  10.800    8.15   15.09   -0.97   0.000   0.200   0.000    0.00
  10.850    7.29   12.00   -1.49   0.000   0.200   0.000    0.00
  10.900    7.11    2.76   -1.99   0.000   0.200   0.000    0.00
  10.950    7.13    0.66   -1.61   0.000   0.200   0.000    0.00
  11.000    7.56   -0.59   -1.76   0.000   0.200   0.000    0.00
  11.050    8.06   -3.28   -1.74   0.000   0.200   0.000    0.00
  11.100    8.28  -10.79   -2.68   0.000   0.200   0.000    0.00
  11.150    8.18   -8.96   -2.16   0.000   0.200   0.000    0.00
  11.200    8.12   -5.96   -1.72   0.000   0.200   0.000    0.00
  11.250    8.30   -5.80   -2.60   0.000   0.200   0.000    0.00
  11.300    8.87   -4.79   -3.00   0.000   0.200   0.000    0.00
  11.350    9.17   -3.39   -2.87   0.000   0.200   0.000    0.00
  11.400    9.51   -5.83   -2.59   0.000   0.200   0.000    0.00
  11.450    9.81   -5.89   -2.93   0.000   0.200   0.000    0.00
  11.500    9.79   -6.38   -2.74   0.000   0.200   0.000    0.00
  11.550    9.37   -6.43   -2.35   0.000   0.200   0.000    0.00
  11.600    9.27   -1.59   -2.75   0.000   0.200   0.000    0.00
  11.650    9.53    1.46   -2.45   0.000   0.200   0.000    0.00
  11.700    9.48    2.31   -1.68   0.000   0.200   0.000    0.00
  11.750    9.89    6.81   -2.11   0.000   0.200   0.000    0.00
  11.800    9.82    9.34   -2.00   0.000   0.200   0.000    0.00
  11.850   10.19   12.90   -2.73   0.000   0.200   0.000    0.00
  11.900    9.77   11.66   -2.66   0.000   0.200   0.000    0.00
  11.950    9.50   11.66   -2.30   0.000   0.200   0.000    0.00
  12.000    9.80   13.75   -1.66   0.000   0.200   0.000    0.00
  12.050    9.80   17.57   -1.91   0.000   0.200   0.000    0.00
  12.100    9.88   13.92   -1.66   0.000   0.200   0.000    0.00
  12.150   10.46   13.74   -2.22   0.000   0.200   0.000    0.00
  12.200   10.59   13.60   -1.91   0.000   0.200   0.000    0.00
  12.250   10.22   14.83   -2.52   0.000   0.200   0.000    0.00
  12.300    9.89   13.46   -1.96   0.000   0.200   0.000    0.00
  12.350    9.87   13.88   -1.90   0.000   0.200   0.000    0.00
  12.400   10.17   18.40   -1.66   0.000   0.200   0.000    0.00
  12.450   10.27   19.27   -1.02   0.000   0.200   0.000    0.00
  12.500   10.34   20.78   -1.19   0.000   0.200   0.000    0.00
  12.550   10.05   15.37   -1.78   0.000   0.200   0.000    0.00
  12.600    9.93   19.46   -1.39   0.000   0.200   0.000    0.00
  12.650   10.05   22.10   -1.66   0.000   0.200   0.000    0.00
  12.700   10.03   25.02   -1.18   0.000   0.200   0.000    0.00
  12.750   10.11   25.05   -0.73   0.000   0.200   0.000    0.00
  12.800    9.78   25.85   -0.37   0.000   0.200   0.000    0.00
  12.850    9.76   26.23   -0.48   0.000   0.200   0.000    0.00
  12.900    9.81   26.94   -1.35   0.000   0.200   0.000    0.00
  12.950    9.97   23.35   -1.40   0.000   0.200   0.000    0.00
  13.000    9.70   21.01   -1.36   0.000   0.200   0.000    0.00
  13.050    9.65   22.21   -1.84   0.000   0.200   0.000    0.00
  13.100    9.96   18.04   -1.17   0.000   0.200   0.000    0.00
  13.150   10.13   16.60   -1.65   0.000   0.200   0.000    0.00
  13.200    9.73   21.28   -1.44   0.000   0.200   0.000    0.00
  13.250   10.08   20.66   -1.49   0.000   0.200   0.000    0.00
  13.300   10.28   22.45   -0.65   0.000   0.200   0.000    0.00
  13.350   10.08   22.73   -0.17   0.000   0.200   0.000    0.00
  13.400   10.04   20.23   -0.07   0.000   0.200   0.000    0.00
  13.450    9.51   21.96   -0.69   0.000   0.200   0.000    0.00
  13.500    9.33   25.63   -0.35   0.000   0.200   0.000    0.00
  13.550    9.90   24.15    0.25   0.000   0.200   0.000    0.00
  13.600   10.41   22.48    0.67   0.000   0.200   0.000    0.00
  13.650   10.64   25.20    0.60   0.000   0.200   0.000    0.00
  13.700   10.80   24.07    0.18   0.000   0.200   0.000    0.00
  13.750   10.76   24.36    0.53   0.000   0.200   0.000    0.00
  13.800   10.94   23.50    0.81   0.000   0.200   0.000    0.00
  13.850   11.21   22.41    0.19   0.000   0.200   0.000    0.00
  13.900   11.19   22.41    0.86   0.000   0.200   0.000    0.00
  13.950   11.09   23.49    0.39   0.000   0.200   0.000    0.00
  14.000   10.92   24.76   -0.01   0.000   0.200   0.000    0.00
  14.050   10.71   26.26    0.38   0.000   0.200   0.000    0.00
  14.100   10.78   24.29    0.62   0.000   0.200   0.000    0.00
  14.150   11.03   21.07    0.43   0.000   0.200   0.000    0.00
  14.200   10.73   20.89    0.38   0.000   0.200   0.000    0.00
  14.250   10.25   19.55    0.60   0.000   0.200   0.000    0.00
  14.300   10.94   20.66    1.02   0.000   0.200   0.000    0.00
  14.350   10.80   19.35    1.80   0.000   0.200   0.000    0.00
  14.400   11.45   24.78    1.08   0.000   0.200   0.000    0.00
  14.450   11.68   24.90    0.83   0.000   0.200   0.000    0.00
  14.500   12.04   24.79    0.54   0.000   0.200   0.000    0.00
  14.550   11.63   22.44    0.88   0.000   0.200   0.000    0.00
  14.600   11.13   20.59    1.17   0.000   0.200   0.000    0.00
  14.650   11.06   20.20    1.04   0.000   0.200   0.000    0.00
  14.700   11.58   20.50    0.94   0.000   0.200   0.000    0.00
  14.750   11.68   20.40    1.49   0.000   0.200   0.000    0.00
  14.800   11.59   20.51    1.60   0.000   0.200   0.000    0.00
  14.850   12.03   18.47    2.15   0.000   0.200   0.000    0.00
  14.900   12.21   16.76    2.16   0.000   0.200   0.000    0.00
  14.950   12.03   19.20    2.20   0.000   0.200   0.000    0.00
  15.000   11.46   15.48    1.93   0.000   0.200   0.000    0.00
  15.050   11.85   18.59    1.90   0.000   0.200   0.000    0.00
  15.100   12.22   19.04    1.03   0.000   0.200   0.000    0.00
  15.150   12.84   22.23    0.73   0.000   0.200   0.000    0.00
  15.200   12.32   22.01    0.64   0.000   0.200   0.000    0.00
  15.250   11.59   20.23    0.44   0.000   0.200   0.000    0.00
  15.300   11.43   20.19    0.35   0.000   0.200   0.000    0.00
  15.350   11.16   18.62   -0.19   0.000   0.200   0.000    0.00
  15.400   11.26   18.20   -0.56   0.000   0.200   0.000    0.00
  15.450   11.25   16.67   -0.61   0.000   0.200   0.000    0.00
  15.500   11.36   17.61   -0.67   0.000   0.200   0.000    0.00
  15.550   12.00   17.34   -0.15   0.000   0.200   0.000    0.00
  15.600   12.18   18.46    0.12   0.000   0.200   0.000    0.00
  15.650   12.94   19.84    0.58   0.000   0.200   0.000    0.00
  15.700   12.61   20.59    0.42   0.000   0.200   0.000    0.00
  15.750   12.31   20.73    0.14   0.000   0.200   0.000    0.00
  15.800   12.66   18.51   -0.04   0.000   0.200   0.000    0.00
  15.850   13.18   19.70   -0.44   0.000   0.200   0.000    0.00
  15.900   12.41   18.31   -0.38   0.000   0.200   0.000    0.00
  15.950   12.45   17.74    0.11   0.000   0.200   0.000    0.00
  16.000   12.41   15.15   -0.39   0.000   0.200   0.000    0.00
  16.050   12.65   13.11   -0.57   0.000   0.200   0.000    0.00
  16.100   12.42   15.18   -0.45   0.000   0.200   0.000    0.00
  16.150   12.48   19.09    0.51   0.000   0.200   0.000    0.00
  16.200   12.34   19.07    0.84   0.000   0.200   0.000    0.00
  16.250   12.39   22.53    0.67   0.000   0.200   0.000    0.00
  16.300   12.43   24.12    0.30   0.000   0.200   0.000    0.00
  16.350   12.65   21.59    0.90   0.000   0.200   0.000    0.00
  16.400   12.49   21.85    0.34   0.000   0.200   0.000    0.00
  16.450   13.34   22.83   -0.24   0.000   0.200   0.000    0.00
  16.500   13.64   20.00   -0.77   0.000   0.200   0.000    0.00
  16.550   13.48   20.02   -0.52   0.000   0.200   0.000    0.00
  16.600   13.16   23.29   -0.62   0.000   0.200   0.000    0.00
  16.650   13.37   25.29   -0.84   0.000   0.200   0.000    0.00
  16.700   13.18   25.15   -0.40   0.000   0.200   0.000    0.00
  16.750   13.10   25.23   -1.06   0.000   0.200   0.000    0.00
  16.800   13.00   24.27   -1.14   0.000   0.200   0.000    0.00
  16.850   13.62   24.20   -1.52   0.000   0.200   0.000    0.00
  16.900   13.45   23.82   -1.48   0.000   0.200   0.000    0.00
  16.950   13.26   22.58   -1.17   0.000   0.200   0.000    0.00
  17.000   12.92   24.22   -1.53   0.000   0.200   0.000    0.00
  17.050   12.61   23.35   -1.34   0.000   0.200   0.000    0.00
  17.100   13.11   23.47   -0.66   0.000   0.200   0.000    0.00
  17.150   12.69   24.62   -0.38   0.000   0.200   0.000    0.00
  17.200   12.40   24.05   -0.36   0.000   0.200   0.000    0.00
  17.250   12.87   22.33   -0.66   0.000   0.200   0.000    0.00
  17.300   12.62   23.22   -1.26   0.000   0.200   0.000    0.00
  17.350   12.44   23.05   -0.67   0.000   0.200   0.000    0.00
  17.400   13.05   23.64   -0.58   0.000   0.200   0.000    0.00
  17.450   13.31   24.69   -0.25   0.000   0.200   0.000    0.00
  17.500   12.89   21.63   -0.17   0.000   0.200   0.000    0.00
  17.550   13.33   22.55   -0.09   0.000   0.200   0.000    0.00
  17.600   13.06   21.88    0.37   0.000   0.200   0.000    0.00
  17.650   13.41   20.47   -0.05   0.000   0.200   0.000    0.00
  17.700   12.80   20.08   -0.50   0.000   0.200   0.000    0.00
  17.750   13.01   20.91   -0.82   0.000   0.200   0.000    0.00
  17.800   13.13   19.59   -1.52   0.000   0.200   0.000    0.00
  17.850   13.26   18.35   -1.49   0.000   0.200   0.000    0.00
  17.900   13.14   15.45   -1.72   0.000   0.200   0.000    0.00
  17.950   13.00   17.81   -1.92   0.000   0.200   0.000    0.00
  18.000   12.61   16.39   -1.77   0.000   0.200   0.000    0.00
  18.050   13.11   15.10   -1.40   0.000   0.200   0.000    0.00
  18.100   13.37   15.88   -1.30   0.000   0.200   0.000    0.00
  18.150   13.14   15.63   -1.69   0.000   0.200   0.000    0.00
  18.200   12.50   15.54   -2.13   0.000   0.200   0.000    0.00
  18.250   12.07   16.49   -2.35   0.000   0.200   0.000    0.00
  18.300   12.41   18.19   -2.04   0.000   0.200   0.000    0.00
  18.350   12.31   15.55   -1.68   0.000   0.200   0.000    0.00
  18.400   12.18   17.60   -1.95   0.000   0.200   0.000    0.00
  18.450   11.88   16.92   -1.42   0.000   0.200   0.000    0.00
  18.500   11.80   16.62   -0.84   0.000   0.200   0.000    0.00
  18.550   11.71   14.73   -1.87   0.000   0.200   0.000    0.00
  18.600   11.13   14.20   -1.88   0.000   0.200   0.000    0.00
  18.650   11.64   12.65   -2.30   0.000   0.200   0.000    0.00
  18.700   11.43   15.79   -2.34   0.000   0.200   0.000    0.00
  18.750   12.05   14.85   -2.38   0.000   0.200   0.000    0.00
  18.800   12.02   17.18   -1.80   0.000   0.200   0.000    0.00
  18.850   11.75   17.21   -1.61   0.000   0.200   0.000    0.00
  18.900   11.79   17.22   -1.27   0.000   0.200   0.000    0.00
  18.950   12.48   17.77   -1.88   0.000   0.200   0.000    0.00
  19.000   12.42   17.86   -1.34   0.000   0.200   0.000    0.00
  19.050   11.96   19.44   -0.87   0.000   0.200   0.000    0.00
  19.100   12.56   22.71   -0.15   0.000   0.200   0.000    0.00
  19.150   12.41   20.78   -0.53   0.000   0.200   0.000    0.00
  19.200   12.97   18.72   -0.51   0.000   0.200   0.000    0.00
  19.250   12.70   17.60   -0.60   0.000   0.200   0.000    0.00
  19.300   13.06   18.30   -0.12   0.000   0.200   0.000    0.00
  19.350   12.44   20.37   -0.05   0.000   0.200   0.000    0.00
  19.400   11.93   19.92   -0.37   0.000   0.200   0.000    0.00
  19.450   12.17   21.80   -0.18   0.000   0.200   0.000    0.00
  19.500   11.78   20.09   -0.51   0.000   0.200   0.000    0.00
  19.550   11.69   20.28   -0.78   0.000   0.200   0.000    0.00
  19.600   11.35   23.71   -1.11   0.000   0.200   0.000    0.00
  19.650   11.54   23.95   -0.94   0.000   0.200   0.000    0.00
  19.700   10.82   23.12   -1.36   0.000   0.200   0.000    0.00
  19.750   10.78   23.14   -1.62   0.000   0.200   0.000    0.00
  19.800   10.30   23.37   -1.57   0.000   0.200   0.000    0.00
  19.850    9.94   23.63   -1.85   0.000   0.200   0.000    0.00
  19.900   10.32   23.85   -1.53   0.000   0.200   0.000    0.00
  19.950   10.61   28.09   -1.69   0.000   0.200   0.000    0.00
  20.000   10.71   24.22   -1.70   0.000   0.200   0.000    0.00
  20.050   10.60   21.18   -1.51   0.000   0.200   0.000    0.00
  20.100   11.01   23.95   -1.40   0.000   0.200   0.000    0.00
  20.150   10.77   25.17   -1.67   0.000   0.200   0.000    0.00
  20.200   10.62   24.39   -1.28   0.000   0.200   0.000    0.00
  20.250   10.73   22.84   -1.38   0.000   0.200   0.000    0.00
  20.300   11.89   22.05   -0.97   0.000   0.200   0.000    0.00
  20.350   11.58   20.62   -1.26   0.000   0.200   0.000    0.00
  20.400   11.09   23.99   -1.63   0.000   0.200   0.000    0.00
  20.450   11.71   22.34   -1.18   0.000   0.200   0.000    0.00
  20.500   12.25   20.89   -0.63   0.000   0.200   0.000    0.00
  20.550   12.04   20.66   -1.00   0.000   0.200   0.000    0.00
  20.600   12.37   22.20   -1.32   0.000   0.200   0.000    0.00
  20.650   11.83   25.59   -1.37   0.000   0.200   0.000    0.00
  20.700   11.81   27.67   -1.42   0.000   0.200   0.000    0.00
  20.750   11.45   26.84   -1.53   0.000   0.200   0.000    0.00
  20.800   11.63   29.23   -1.41   0.000   0.200   0.000    0.00
  20.850   11.55   29.88   -0.33   0.000   0.200   0.000    0.00
  20.900   11.64   33.65   -0.31   0.000   0.200   0.000    0.00
  20.950   11.58   35.94    0.29   0.000   0.200   0.000    0.00
  21.000   11.04   37.52   -0.27   0.000   0.200   0.000    0.00
  21.050   10.78   37.53   -0.43   0.000   0.200   0.000    0.00
  21.100   11.05   37.48   -0.40   0.000   0.200   0.000    0.00
  21.150   11.70   34.72    0.24   0.000   0.200   0.000    0.00
  21.200   11.35   33.59    0.87   0.000   0.200   0.000    0.00
  21.250   11.44   32.33   -0.22   0.000   0.200   0.000    0.00
  21.300   11.02   26.30   -0.45   0.000   0.200   0.000    0.00
  21.350   11.34   29.15   -1.25   0.000   0.200   0.000    0.00
  21.400   10.98   32.35   -0.89   0.000   0.200   0.000    0.00
  21.450   11.12   33.38   -0.56   0.000   0.200   0.000    0.00
  21.500   10.63   29.73   -0.30   0.000   0.200   0.000    0.00
  21.550   10.31   27.67    0.09   0.000   0.200   0.000    0.00
  21.600    9.62   25.98    0.85   0.000   0.200   0.000    0.00
  21.650    9.77   27.98    0.80   0.000   0.200   0.000    0.00
  21.700    9.73   22.34    1.23   0.000   0.200   0.000    0.00
  21.750    9.82   20.86    1.17   0.000   0.200   0.000    0.00
  21.800    9.56   20.96    0.24   0.000   0.200   0.000    0.00
  21.850    9.22   20.56    0.15   0.000   0.200   0.000    0.00
  21.900    9.64   20.95    0.03   0.000   0.200   0.000    0.00
  21.950    9.48   16.15    0.00   0.000   0.200   0.000    0.00
  22.000    9.87   16.34    0.24   0.000   0.200   0.000    0.00
  22.050    9.89   17.44    0.23   0.000   0.200   0.000    0.00
  22.100   10.02   16.53   -0.11   0.000   0.200   0.000    0.00
  22.150   10.11   15.59   -1.15   0.000   0.200   0.000    0.00
  22.200    9.59   17.01   -0.90   0.000   0.200   0.000    0.00
  22.250    9.57   19.23   -1.33   0.000   0.200   0.000    0.00
  22.300    9.34   21.62   -0.73   0.000   0.200   0.000    0.00
  22.350    9.49   21.52   -0.53   0.000   0.200   0.000    0.00