! This hub-height wind-speed file was generated by TurbSim (v1.06.00, 21-Sep-2012) on 16-Jun-2018 at 18:34:56.
!
! The requested statistics for this data were:
!    Mean Total Wind Speed =   19.000 m/s
!    Turbulence Intensity  =   14.626%
!
!   Time  HorSpd  WndDir  VerSpd  HorShr  VerShr  LnVShr  GstSpd
!  (sec)   (m/s)   (deg)   (m/s)     (-)     (-)     (-)   (m/s)
   0.000   21.49   17.57   -0.44   0.000   0.200   0.000    0.00
   0.050   22.25   18.19   -0.68   0.000   0.200   0.000    0.00
   0.100   21.59   13.66   -0.70   0.000   0.200   0.000    0.00
   0.150   21.88   14.20   -0.36   0.000   0.200   0.000    0.00
   0.200   22.84   15.54    0.14   0.000   0.200   0.000    0.00
   0.250   23.09   12.28   -0.16   0.000   0.200   0.000    0.00
   0.300   22.90   11.69   -0.22   0.000   0.200   0.000    0.00
   0.350   23.38    9.37    0.19   0.000   0.200   0.000    0.00
   0.400   24.65   10.47    0.40   0.000   0.200   0.000    0.00
   0.450   24.46    8.97    0.63   0.000   0.200   0.000    0.00
   0.500   24.13    6.94    1.36   0.000   0.200   0.000    0.00
   0.550   23.50   10.04    1.64   0.000   0.200   0.000    0.00
   0.600   23.42   10.02    1.46   0.000   0.200   0.000    0.00
   0.650   23.21    9.87    0.27   0.000   0.200   0.000    0.00
   0.700   23.83   12.01   -0.69   0.000   0.200   0.000    0.00
   0.750   24.67   13.87   -0.43   0.000   0.200   0.000    0.00
   0.800   24.97   12.87   -1.71   0.000   0.200   0.000    0.00
   0.850   24.19   13.77   -2.20   0.000   0.200   0.000    0.00
   0.900   22.78   10.99   -2.87   0.000   0.200   0.000    0.00
   0.950   21.78   11.46   -1.96   0.000   0.200   0.000    0.00
   1.000   22.73   10.56   -1.04   0.000   0.200   0.000    0.00
   1.050   22.44   10.22   -1.78   0.000   0.200   0.000    0.00
   1.100   22.02   11.35   -1.85   0.000   0.200   0.000    0.00
   1.150   22.23    9.64   -2.29   0.000   0.200   0.000    0.00
   1.200   22.40    9.70   -2.01   0.000   0.200   0.000    0.00
   1.250   22.34    8.77   -2.86   0.000   0.200   0.000    0.00
   1.300   22.53    9.55   -2.35   0.000   0.200   0.000    0.00
   1.350   21.90    9.64   -1.77   0.000   0.200   0.000    0.00
   1.400   21.87    9.55   -1.10   0.000   0.200   0.000    0.00
   1.450   22.58    9.49   -1.54   0.000   0.200   0.000    0.00
   1.500   22.46    8.53   -1.61   0.000   0.200   0.000    0.00
   1.550   22.96   10.92   -1.50   0.000   0.200   0.000    0.00
   1.600   22.75    9.94   -1.44   0.000   0.200   0.000    0.00
   1.650   22.19   11.70   -2.65   0.000   0.200   0.000    0.00
   1.700   22.05   13.20   -2.01   0.000   0.200   0.000    0.00
   1.750   21.75   13.10   -1.96   0.000   0.200   0.000    0.00
   1.800   21.93   12.61   -1.56   0.000   0.200   0.000    0.00
   1.850   21.96    9.71   -1.86   0.000   0.200   0.000    0.00
   1.900   21.35    7.83   -2.60   0.000   0.200   0.000    0.00
   1.950   21.68    8.71   -1.84   0.000   0.200   0.000    0.00
   2.000   21.48    8.76   -1.41   0.000   0.200   0.000    0.00
   2.050   21.10    9.43   -0.55   0.000   0.200   0.000    0.00
   2.100   20.44    8.50    0.13   0.000   0.200   0.000    0.00
   2.150   20.73    9.95    0.83   0.000   0.200   0.000    0.00
   2.200   19.78    8.09    1.37   0.000   0.200   0.000    0.00
   2.250   20.08    8.40    2.26   0.000   0.200   0.000    0.00
   2.300   20.26    8.13    1.14   0.000   0.200   0.000    0.00
   2.350   20.04    8.74    1.47   0.000   0.200   0.000    0.00
   2.400   21.19    7.66    1.78   0.000   0.200   0.000    0.00
   2.450   21.03    9.21    2.04   0.000   0.200   0.000    0.00
   2.500   20.63    7.95    1.65   0.000   0.200   0.000    0.00
   2.550   20.56    7.88    0.80   0.000   0.200   0.000    0.00
   2.600   20.32    6.09    1.29   0.000   0.200   0.000    0.00
   2.650   20.30    5.48    0.47   0.000   0.200   0.000    0.00
   2.700   21.06    5.83    0.01   0.000   0.200   0.000    0.00
   2.750   20.60    6.03    1.05   0.000   0.200   0.000    0.00
   2.800   19.03    4.00    0.15   0.000   0.200   0.000    0.00
   2.850   19.28    0.93   -0.34   0.000   0.200   0.000    0.00
   2.900   19.26    0.67   -0.48   0.000   0.200   0.000    0.00
   2.950   20.35   -0.43   -0.02   0.000   0.200   0.000    0.00
   3.000   21.00   -1.63    0.61   0.000   0.200   0.000    0.00
   3.050   20.85   -2.37    0.84   0.000   0.200   0.000    0.00
   3.100   20.98   -2.61    2.00   0.000   0.200   0.000    0.00
   3.150   21.33   -1.97    1.34   0.000   0.200   0.000    0.00
   3.200   21.15   -1.52    1.04   0.000   0.200   0.000    0.00
   3.250   20.09   -4.40    2.03   0.000   0.200   0.000    0.00
   3.300   19.65   -4.25    3.02   0.000   0.200   0.000    0.00
   3.350   19.38   -3.48    2.39   0.000   0.200   0.000    0.00
   3.400   19.25   -2.42    1.76   0.000   0.200   0.000    0.00
   3.450   19.49   -3.09    1.49   0.000   0.200   0.000    0.00
   3.500   18.85   -1.14    0.69   0.000   0.200   0.000    0.00
   3.550   18.75   -3.45    1.36   0.000   0.200   0.000    0.00
   3.600   18.46   -2.27    0.47   0.000   0.200   0.000    0.00
   3.650   19.41   -1.66    0.87   0.000   0.200   0.000    0.00
   3.700   19.18   -2.40    1.33   0.000   0.200   0.000    0.00
   3.750   19.23   -3.31    1.65   0.000   0.200   0.000    0.00
   3.800   20.61   -3.33    1.19   0.000   0.200   0.000    0.00
   3.850   21.05   -1.34    0.49   0.000   0.200   0.000    0.00
   3.900   21.02   -0.82   -0.64   0.000   0.200   0.000    0.00
   3.950   20.76   -2.43   -1.16   0.000   0.200   0.000    0.00
   4.000   20.49   -1.90   -0.44   0.000   0.200   0.000    0.00
   4.050   20.21   -0.06   -0.70   0.000   0.200   0.000    0.00
   4.100   19.73   -2.91   -1.95   0.000   0.200   0.000    0.00
   4.150   19.59   -2.37   -1.62   0.000   0.200   0.000    0.00
   4.200   19.23   -0.29   -1.89   0.000   0.200   0.000    0.00
   4.250   18.73    0.12   -2.48   0.000   0.200   0.000    0.00
   4.300   18.93   -1.22   -1.33   0.000   0.200   0.000    0.00
   4.350   18.51   -3.79   -0.33   0.000   0.200   0.000    0.00
   4.400   19.41   -6.24   -0.30   0.000   0.200   0.000    0.00
   4.450   19.54   -6.30   -0.08   0.000   0.200   0.000    0.00
   4.500   18.47   -4.89   -0.30   0.000   0.200   0.000    0.00
   4.550   18.49   -2.04    0.80   0.000   0.200   0.000    0.00
   4.600   18.49   -1.59    0.32   0.000   0.200   0.000    0.00
   4.650   18.53   -1.51    0.31   0.000   0.200   0.000    0.00
   4.700   19.11   -2.34    0.05   0.000   0.200   0.000    0.00
   4.750   18.80   -1.65   -0.48   0.000   0.200   0.000    0.00
   4.800   18.49   -1.04    0.12   0.000   0.200   0.000    0.00
   4.850   18.81   -0.05   -0.42   0.000   0.200   0.000    0.00
   4.900   19.27   -0.13   -0.69   0.000   0.200   0.000    0.00
   4.950   19.94    2.73   -0.36   0.000   0.200   0.000    0.00
   5.000   19.34    2.30   -1.01   0.000   0.200   0.000    0.00
   5.050   19.49    5.70   -1.04   0.000   0.200   0.000    0.00
   5.100   19.51    5.19   -2.37   0.000   0.200   0.000    0.00
   5.150   20.07    1.75   -2.37   0.000   0.200   0.000    0.00
   5.200   19.83    1.51   -2.57   0.000   0.200   0.000    0.00
   5.250   20.01    4.16   -2.31   0.000   0.200   0.000    0.00
   5.300   20.21    3.86   -1.63   0.000   0.200   0.000    0.00
   5.350   20.72    2.54   -1.28   0.000   0.200   0.000    0.00
   5.400   20.14    2.90   -0.91   0.000   0.200   0.000    0.00
   5.450   20.15    2.88   -1.35   0.000   0.200   0.000    0.00
   5.500   20.19    1.84   -1.38   0.000   0.200   0.000    0.00
   5.550   19.18    5.74   -2.35   0.000   0.200   0.000    0.00
   5.600   18.55    7.34   -2.45   0.000   0.200   0.000    0.00
   5.650   18.58    7.54   -2.43   0.000   0.200   0.000    0.00
   5.700   18.71    7.72   -0.92   0.000   0.200   0.000    0.00
   5.750   18.41    9.32   -0.08   0.000   0.200   0.000    0.00
   5.800   18.53    9.46   -0.71   0.000   0.200   0.000    0.00
   5.850   18.77   11.69   -0.41   0.000   0.200   0.000    0.00
   5.900   19.14   14.16   -0.37   0.000   0.200   0.000    0.00
   5.950   19.24   14.30   -0.30   0.000   0.200   0.000    0.00
   6.000   19.05   16.03    0.29   0.000   0.200   0.000    0.00
   6.050   19.62   18.21   -0.24   0.000   0.200   0.000    0.00
   6.100   19.22   16.37   -0.48   0.000   0.200   0.000    0.00
   6.150   19.30   12.85   -0.21   0.000   0.200   0.000    0.00
   6.200   19.02   10.82   -0.54   0.000   0.200   0.000    0.00
   6.250   18.89    9.49   -0.55   0.000   0.200   0.000    0.00
   6.300   18.49   11.08   -0.06   0.000   0.200   0.000    0.00
   6.350   18.23   12.74   -0.42   0.000   0.200   0.000    0.00
   6.400   18.67   13.24   -0.23   0.000   0.200   0.000    0.00
   6.450   18.66   10.98   -0.42   0.000   0.200   0.000    0.00
   6.500   19.47   11.20   -0.67   0.000   0.200   0.000    0.00
   6.550   18.51    9.43   -1.29   0.000   0.200   0.000    0.00
   6.600   19.40    9.56   -0.83   0.000   0.200   0.000    0.00
   6.650   19.48    8.42   -0.86   0.000   0.200   0.000    0.00
   6.700   18.81    7.61   -1.67   0.000   0.200   0.000    0.00
   6.750   18.49   10.33   -0.41   0.000   0.200   0.000    0.00
   6.800   18.34    7.11   -0.44   0.000   0.200   0.000    0.00
   6.850   18.73    7.91   -0.34   0.000   0.200   0.000    0.00
   6.900   19.20    9.12   -0.15   0.000   0.200   0.000    0.00
   6.950   19.15   11.44   -0.30   0.000   0.200   0.000    0.00
   7.000   19.49   13.04   -0.96   0.000   0.200   0.000    0.00
   7.050   19.55   14.05   -0.27   0.000   0.200   0.000    0.00
   7.100   19.97   13.96   -0.15   0.000   0.200   0.000    0.00
   7.150   20.06   13.59    0.49   0.000   0.200   0.000    0.00
   7.200   20.32   13.09    0.70   0.000   0.200   0.000    0.00
   7.250   20.14   12.62    0.36   0.000   0.200   0.000    0.00
   7.300   20.26   13.46   -0.15   0.000   0.200   0.000    0.00
   7.350   20.26   10.96    0.11   0.000   0.200   0.000    0.00
   7.400   19.09   13.06    0.04   0.000   0.200   0.000    0.00
   7.450   19.38   13.41   -1.03   0.000   0.200   0.000    0.00
   7.500   19.91   13.74   -0.43   0.000   0.200   0.000    0.00
   7.550   19.89   17.40   -0.32   0.000   0.200   0.000    0.00
   7.600   19.94   17.92   -1.22   0.000   0.200   0.000    0.00
   7.650   20.24   17.16   -0.67   0.000   0.200   0.000    0.00
   7.700   20.62   16.99   -0.51   0.000   0.200   0.000    0.00
   7.750   19.80   17.64   -0.38   0.000   0.200   0.000    0.00
   7.800   20.18   18.42   -0.39   0.000   0.200   0.000    0.00
   7.850   19.74   17.13   -1.77   0.000   0.200   0.000    0.00
   7.900   19.75   16.72   -1.88   0.000   0.200   0.000    0.00
   7.950   19.49   16.63   -1.32   0.000   0.200   0.000    0.00
   8.000   19.02   14.66   -1.42   0.000   0.200   0.000    0.00
   8.050   18.60   13.15   -1.53   0.000   0.200   0.000    0.00
   8.100   19.20   13.30   -1.72   0.000   0.200   0.000    0.00
   8.150   19.34   12.97   -1.29   0.000   0.200   0.000    0.00
   8.200   19.08   11.47   -1.11   0.000   0.200   0.000    0.00
   8.250   19.11    9.53   -1.03   0.000   0.200   0.000    0.00
   8.300   19.35   10.47   -1.10   0.000   0.200   0.000    0.00
   8.350   19.30   10.69   -1.35   0.000   0.200   0.000    0.00
   8.400   19.54   11.52   -1.63   0.000   0.200   0.000    0.00
   8.450   19.36    8.47   -2.45   0.000   0.200   0.000    0.00
   8.500   20.06    9.43   -1.98   0.000   0.200   0.000    0.00
   8.550   20.12    8.10   -1.58   0.000   0.200   0.000    0.00
   8.600   20.31    7.44    0.26   0.000   0.200   0.000    0.00
   8.650   21.41    6.93    0.69   0.000   0.200   0.000    0.00
   8.700   21.75    4.65    1.34   0.000   0.200   0.000    0.00
   8.750   21.91    5.12    1.48   0.000   0.200   0.000    0.00
   8.800   21.68    8.45    0.77   0.000   0.200   0.000    0.00
   8.850   21.68    8.54    0.00   0.000   0.200   0.000    0.00
   8.900   22.18   11.16   -0.40   0.000   0.200   0.000    0.00
   8.950   22.13   10.70   -0.46   0.000   0.200   0.000    0.00
   9.000   22.13    9.46    0.41   0.000   0.200   0.000    0.00
   9.050   22.17    8.52   -0.17   0.000   0.200   0.000    0.00
   9.100   22.49    6.94   -0.38   0.000   0.200   0.000    0.00
   9.150   22.40    6.59    0.08   0.000   0.200   0.000    0.00
   9.200   21.97    5.90   -0.02   0.000   0.200   0.000    0.00
   9.250   21.58    8.01   -0.49   0.000   0.200   0.000    0.00
   9.300   21.26    5.71   -0.83   0.000   0.200   0.000    0.00
   9.350   21.14    3.48   -0.11   0.000   0.200   0.000    0.00
   9.400   21.12    1.50    0.45   0.000   0.200   0.000    0.00
   9.450   20.80    0.41   -0.12   0.000   0.200   0.000    0.00
   9.500   21.39    2.87   -0.27   0.000   0.200   0.000    0.00
   9.550   21.51    5.66   -0.45   0.000   0.200   0.000    0.00
   9.600   21.60    5.70   -1.25   0.000   0.200   0.000    0.00
   9.650   21.73    4.68   -0.70   0.000   0.200   0.000    0.00
   9.700   22.06    2.32   -0.67   0.000   0.200   0.000    0.00
   9.750   20.80    3.15   -1.46   0.000   0.200   0.000    0.00
   9.800   21.12    5.08   -1.13   0.000   0.200   0.000    0.00
   9.850   20.27    5.50   -1.03   0.000   0.200   0.000    0.00
   9.900   19.78    1.71   -1.45   0.000   0.200   0.000    0.00
   9.950   20.13    2.51   -1.83   0.000   0.200   0.000    0.00
  10.000   20.10    3.54   -1.01   0.000   0.200   0.000    0.00
  10.050   19.80    2.52   -0.17   0.000   0.200   0.000    0.00
  10.100   19.76    1.80   -0.98   0.000   0.200   0.000    0.00
  10.150   19.19    3.24   -1.35   0.000   0.200   0.000    0.00
  10.200   19.52    3.71   -2.15   0.000   0.200   0.000    0.00
  10.250   19.43    2.66   -1.62   0.000   0.200   0.000    0.00
  10.300   19.10    3.64   -0.76   0.000   0.200   0.000    0.00
  10.350   18.21    5.22   -0.71   0.000   0.200   0.000    0.00
  10.400   18.39    7.23   -0.31   0.000   0.200   0.000    0.00
  10.450   19.09    5.84   -0.99   0.000   0.200   0.000    0.00
  10.500   20.10    8.04   -1.19   0.000   0.200   0.000    0.00
  10.550   20.08    7.11   -2.40   0.000   0.200   0.000    0.00
  10.600   19.30    5.75   -1.03   0.000   0.200   0.000    0.00
  10.650   18.92    3.36    0.70   0.000   0.200   0.000    0.00
  10.700   19.12    2.91    0.73   0.000   0.200   0.000    0.00
  10.750   19.16    5.29    1.22   0.000   0.200   0.000    0.00
  10.800   18.86    4.27    0.69   0.000   0.200   0.000    0.00
  10.850   19.86    2.58    0.20   0.000   0.200   0.000    0.00
  10.900   20.27    4.01    0.37   0.000   0.200   0.000    0.00
  10.950   19.81    5.23    0.33   0.000   0.200   0.000    0.00
  11.000   19.01    4.25   -0.15   0.000   0.200   0.000    0.00
  11.050   18.69    4.92    0.18   0.000   0.200   0.000    0.00
  11.100   17.98    5.02    0.43   0.000   0.200   0.000    0.00
  11.150   18.26    5.15   -0.35   0.000   0.200   0.000    0.00
  11.200   18.35    4.82    0.18   0.000   0.200   0.000    0.00
  11.250   18.37    2.85    1.07   0.000   0.200   0.000    0.00
  11.300   18.62    1.46    1.52   0.000   0.200   0.000    0.00
  11.350   18.21    3.47    1.61   0.000   0.200   0.000    0.00
  11.400   17.43    3.59    2.30   0.000   0.200   0.000    0.00
  11.450   17.49    3.72    1.67   0.000   0.200   0.000    0.00
  11.500   18.04    3.54    1.52   0.000   0.200   0.000    0.00
  11.550   18.20    1.89    1.07   0.000   0.200   0.000    0.00
  11.600   18.46    2.72    1.24   0.000   0.200   0.000    0.00
  11.650   18.79    4.06    1.98   0.000   0.200   0.000    0.00
  11.700   18.72    5.11    0.91   0.000   0.200   0.000    0.00
  11.750   18.09    4.15    0.70   0.000   0.200   0.000    0.00
  11.800   17.88    4.63    0.25   0.000   0.200   0.000    0.00
  11.850   17.08    6.42   -0.21   0.000   0.200   0.000    0.00
  11.900   16.58    4.30    0.14   0.000   0.200   0.000    0.00
  11.950   16.64    5.21   -0.87   0.000   0.200   0.000    0.00
  12.000   16.97    4.92   -0.62   0.000   0.200   0.000    0.00
  12.050   16.89    3.58   -1.26   0.000   0.200   0.000    0.00
  12.100   15.60    2.36   -0.86   0.000   0.200   0.000    0.00
  12.150   16.15    1.18   -1.22   0.000   0.200   0.000    0.00
  12.200   16.25    1.27   -0.38   0.000   0.200   0.000    0.00
  12.250   16.22   -0.79   -0.81   0.000   0.200   0.000    0.00
  12.300   15.89    2.00   -0.90   0.000   0.200   0.000    0.00
  12.350   15.14    2.91   -0.62   0.000   0.200   0.000    0.00
  12.400   15.94    5.75    0.31   0.000   0.200   0.000    0.00
  12.450   15.94    3.15   -1.15   0.000   0.200   0.000    0.00
  12.500   15.36    3.33   -1.98   0.000   0.200   0.000    0.00
  12.550   14.73    4.70   -1.13   0.000   0.200   0.000    0.00
  12.600   15.39    3.52   -1.32   0.000   0.200   0.000    0.00
  12.650   15.73    2.36   -1.06   0.000   0.200   0.000    0.00
  12.700   16.86    1.83   -0.38   0.000   0.200   0.000    0.00
  12.750   17.08    3.64   -0.58   0.000   0.200   0.000    0.00
  12.800   16.57    7.44   -0.34   0.000   0.200   0.000    0.00
  12.850   16.84    6.56   -0.79   0.000   0.200   0.000    0.00
  12.900   16.12    7.83   -0.65   0.000   0.200   0.000    0.00
  12.950   15.51   11.10   -0.74   0.000   0.200   0.000    0.00
  13.000   15.98   10.42   -0.23   0.000   0.200   0.000    0.00
  13.050   15.40    8.58   -0.54   0.000   0.200   0.000    0.00
  13.100   16.42    8.61    0.05   0.000   0.200   0.000    0.00
  13.150   16.57    5.95    0.61   0.000   0.200   0.000    0.00
  13.200   17.30    5.16    0.42   0.000   0.200   0.000    0.00
  13.250   17.40    2.64    0.61   0.000   0.200   0.000    0.00
  13.300   17.53    1.05    0.75   0.000   0.200   0.000    0.00
  13.350   17.62    1.12    1.27   0.000   0.200   0.000    0.00
  13.400   16.94    0.02    0.50   0.000   0.200   0.000    0.00
  13.450   16.87    2.33    0.56   0.000   0.200   0.000    0.00
  13.500   17.21    6.73   -0.40   0.000   0.200   0.000    0.00
  13.550   17.62    6.26   -0.15   0.000   0.200   0.000    0.00
  13.600   17.43    7.79    0.20   0.000   0.200   0.000    0.00
  13.650   18.22    6.57    0.22   0.000   0.200   0.000    0.00
  13.700   18.76    9.16   -0.22   0.000   0.200   0.000    0.00
  13.750   18.23    5.85   -0.45   0.000   0.200   0.000    0.00
  13.800   18.16    6.81   -0.07   0.000   0.200   0.000    0.00
  13.850   17.54    7.14   -0.10   0.000   0.200   0.000    0.00
  13.900   17.70    1.38    0.00   0.000   0.200   0.000    0.00
  13.950   17.64    0.99    0.52   0.000   0.200   0.000    0.00
  14.000   16.79    0.06    0.52   0.000   0.200   0.000    0.00
  14.050   17.20   -0.58    0.55   0.000   0.200   0.000    0.00
  14.100   17.07   -2.38    1.00   0.000   0.200   0.000    0.00
  14.150   17.12   -2.44   -0.08   0.000   0.200   0.000    0.00
  14.200   17.05   -1.80    0.56   0.000   0.200   0.000    0.00
  14.250   16.93   -3.48    1.07   0.000   0.200   0.000    0.00
  14.300   17.37    0.79    1.31   0.000   0.200   0.000    0.00
  14.350   17.03    2.66    1.39   0.000   0.200   0.000    0.00
  14.400   17.13    1.47    1.78   0.000   0.200   0.000    0.00
  14.450   16.48    2.09    1.05   0.000   0.200   0.000    0.00
  14.500   16.51    5.39    0.32   0.000   0.200   0.000    0.00
  14.550   15.70    7.70    0.46   0.000   0.200   0.000    0.00
  14.600   15.52    5.49    0.81   0.000   0.200   0.000    0.00
  14.650   15.58    5.21    0.35   0.000   0.200   0.000    0.00
  14.700   16.20    6.32   -0.20   0.000   0.200   0.000    0.00
  14.750   16.88    3.12    0.72   0.000   0.200   0.000    0.00
  14.800   17.09    3.47    1.12   0.000   0.200   0.000    0.00
  14.850   17.14    7.18    1.21   0.000   0.200   0.000    0.00
  14.900   17.19    4.97    0.40   0.000   0.200   0.000    0.00
  14.950   17.57    5.34    0.43   0.000   0.200   0.000    0.00
  15.000   18.16    8.02    0.12   0.000   0.200   0.000    0.00
  15.050   17.38    8.99    0.15   0.000   0.200   0.000    0.00
  15.100   16.82   15.18    0.95   0.000   0.200   0.000    0.00
  15.150   16.50   12.83    0.39   0.000   0.200   0.000    0.00
  15.200   16.07   12.23    0.32   0.000   0.200   0.000    0.00
  15.250   16.33    6.72   -0.32   0.000   0.200   0.000    0.00
  15.300   16.70    5.00   -0.45   0.000   0.200   0.000    0.00
  15.350   16.08    6.26    0.14   0.000   0.200   0.000    0.00
  15.400   16.70    9.15    0.19   0.000   0.200   0.000    0.00
  15.450   16.94   13.15   -0.07   0.000   0.200   0.000    0.00
  15.500   17.29   15.07   -0.99   0.000   0.200   0.000    0.00
  15.550   17.23   14.06    0.09   0.000   0.200   0.000    0.00
  15.600   17.37   12.49    0.13   0.000   0.200   0.000    0.00
  15.650   16.53    8.52   -0.16   0.000   0.200   0.000    0.00
  15.700   16.16    8.41   -0.86   0.000   0.200   0.000    0.00
  15.750   16.48    5.80   -1.70   0.000   0.200   0.000    0.00
  15.800   16.31    6.03   -0.75   0.000   0.200   0.000    0.00
  15.850   16.64    7.62    0.31   0.000   0.200   0.000    0.00
  15.900   16.51   10.39    0.20   0.000   0.200   0.000    0.00
  15.950   17.25   12.04    0.51   0.000   0.200   0.000    0.00
  16.000   17.96   10.12    1.15   0.000   0.200   0.000    0.00
  16.050   17.42    9.19    1.15   0.000   0.200   0.000    0.00
  16.100   17.24    8.39    1.16   0.000   0.200   0.000    0.00
  16.150   16.98    7.58    0.92   0.000   0.200   0.000    0.00
  16.200   16.17    5.71    1.30   0.000   0.200   0.000    0.00
  16.250   15.69    4.79    1.34   0.000   0.200   0.000    0.00
  16.300   14.76    7.11    2.01   0.000   0.200   0.000    0.00
  16.350   14.94   11.79    1.07   0.000   0.200   0.000    0.00
  16.400   14.88   16.62    1.18   0.000   0.200   0.000    0.00
  16.450   15.49   13.43    0.82   0.000   0.200   0.000    0.00
  16.500   15.24   11.91    0.18   0.000   0.200   0.000    0.00
  16.550   15.15   14.11    1.31   0.000   0.200   0.000    0.00
  16.600   15.17   12.58    0.70   0.000   0.200   0.000    0.00
  16.650   15.61   13.57    0.59   0.000   0.200   0.000    0.00
  16.700   14.88   15.72    0.98   0.000   0.200   0.000    0.00
  16.750   15.35   13.43    1.14   0.000   0.200   0.000    0.00
  16.800   15.24   15.75    1.12   0.000   0.200   0.000    0.00
  16.850   15.63   15.27    0.94   0.000   0.200   0.000    0.00
  16.900   15.56   11.06    1.63   0.000   0.200   0.000    0.00
  16.950   15.66    5.00    2.18   0.000   0.200   0.000    0.00
  17.000   16.36    6.78    2.31   0.000   0.200   0.000    0.00
  17.050   16.19    5.04    1.71   0.000   0.200   0.000    0.00
  17.100   16.14    2.80    1.28   0.000   0.200   0.000    0.00
  17.150   16.65    3.37    1.30   0.000   0.200   0.000    0.00
  17.200   16.14    8.11    1.56   0.000   0.200   0.000    0.00
  17.250   16.03    9.58    2.45   0.000   0.200   0.000    0.00
  17.300   16.96    8.40    2.98   0.000   0.200   0.000    0.00
  17.350   17.71    8.35    3.12   0.000   0.200   0.000    0.00
  17.400   18.14    7.28    3.48   0.000   0.200   0.000    0.00
  17.450   18.75    4.82    2.64   0.000   0.200   0.000    0.00
  17.500   19.34    5.30    2.31   0.000   0.200   0.000    0.00
  17.550   18.19    5.88    1.83   0.000   0.200   0.000    0.00
  17.600   18.16    6.13    1.19   0.000   0.200   0.000    0.00
  17.650   19.06    8.46    1.26   0.000   0.200   0.000    0.00
  17.700   19.11   10.39    1.81   0.000   0.200   0.000    0.00
  17.750   18.51   10.73    2.24   0.000   0.200   0.000    0.00
  17.800   17.79   10.87    1.95   0.000   0.200   0.000    0.00
  17.850   17.88   11.74    1.06   0.000   0.200   0.000    0.00
  17.900   18.12    9.80    0.96   0.000   0.200   0.000    0.00
  17.950   18.82    6.39    1.07   0.000   0.200   0.000    0.00
  18.000   18.27    7.32    0.98   0.000   0.200   0.000    0.00
  18.050   17.65    5.99    1.26   0.000   0.200   0.000    0.00
  18.100   17.69    9.40    1.50   0.000   0.200   0.000    0.00
  18.150   17.89    8.95    1.95   0.000   0.200   0.000    0.00
  18.200   17.69   10.90    1.42   0.000   0.200   0.000    0.00
  18.250   17.15   11.01    1.82   0.000   0.200   0.000    0.00
  18.300   17.24    9.49    1.84   0.000   0.200   0.000    0.00
  18.350   17.81   11.13    2.16   0.000   0.200   0.000    0.00
  18.400   18.29   11.16    2.31   0.000   0.200   0.000    0.00
  18.450   18.56   12.87    2.55   0.000   0.200   0.000    0.00
  18.500   18.86   13.00    2.00   0.000   0.200   0.000    0.00
  18.550   19.07   13.51    1.80   0.000   0.200   0.000    0.00
  18.600   19.20   12.08    2.31   0.000   0.200   0.000    0.00
  18.650   18.64    9.73    1.68   0.000   0.200   0.000    0.00
  18.700   19.02   10.69    1.78   0.000   0.200   0.000    0.00
  18.750   19.07   10.25    2.52   0.000   0.200   0.000    0.00
  18.800   18.33   11.59    1.57   0.000   0.200   0.000    0.00
  18.850   18.47   12.44    1.15   0.000   0.200   0.000    0.00
  18.900   17.93   14.20    0.50   0.000   0.200   0.000    0.00
  18.950   18.21   15.97    0.60   0.000   0.200   0.000    0.00
  19.000   19.27   13.60    0.32   0.000   0.200   0.000    0.00
  19.050   19.08   12.25    1.99   0.000   0.200   0.000    0.00
  19.100   19.49   11.55    2.95   0.000   0.200   0.000    0.00
  19.150   19.12    8.83    2.69   0.000   0.200   0.000    0.00
  19.200   18.66    8.81    3.29   0.000   0.200   0.000    0.00
  19.250   18.50    9.40    3.63   0.000   0.200   0.000    0.00
  19.300   18.65   11.85    3.62   0.000   0.200   0.000    0.00
  19.350   19.40   14.50    3.76   0.000   0.200   0.000    0.00
  19.400   19.16   14.24    3.60   0.000   0.200   0.000    0.00
  19.450   17.77   16.98    3.04   0.000   0.200   0.000    0.00
  19.500   17.44   18.29    2.64   0.000   0.200   0.000    0.00
  19.550   18.48   18.46    2.32   0.000   0.200   0.000    0.00
  19.600   18.52   18.93    1.83   0.000   0.200   0.000    0.00
  19.650   18.45   20.55    2.19   0.000   0.200   0.000    0.00
  19.700   17.30   18.37    2.06   0.000   0.200   0.000    0.00
  19.750   17.36   17.99    2.59   0.000   0.200   0.000    0.00
  19.800   16.84   15.95    2.41   0.000   0.200   0.000    0.00
  19.850   17.14   11.99    2.86   0.000   0.200   0.000    0.00
  19.900   16.92   11.79    3.21   0.000   0.200   0.000    0.00
  19.950   17.22    9.29    2.43   0.000   0.200   0.000    0.00
  20.000   17.12    8.61    2.27   0.000   0.200   0.000    0.00
  20.050   16.77    9.44    1.35   0.000   0.200   0.000    0.00
  20.100   16.99   10.15    1.33   0.000   0.200   0.000    0.00
  20.150   17.14   11.73    1.86   0.000   0.200   0.000    0.00
  20.200   16.97   15.82    0.83   0.000   0.200   0.000    0.00
  20.250   17.03   15.64    0.90   0.000   0.200   0.000    0.00
  20.300   16.94   17.10    0.72   0.000   0.200   0.000    0.00
  20.350   17.57   18.84    0.09   0.000   0.200   0.000    0.00
  20.400   17.36   16.15   -0.30   0.000   0.200   0.000    0.00
  20.450   17.73   18.14    0.31   0.000   0.200   0.000    0.00
  20.500   18.61   15.72    0.19   0.000   0.200   0.000    0.00
  20.550   18.39   10.60   -0.07   0.000   0.200   0.000    0.00
  20.600   17.77    9.38   -0.27   0.000   0.200   0.000    0.00
  20.650   17.64    7.56    0.21   0.000   0.200   0.000    0.00
  20.700   17.04    7.22    0.00   0.000   0.200   0.000    0.00
  20.750   16.00    7.45   -0.04   0.000   0.200   0.000    0.00
  20.800   16.67    6.83   -0.78   0.000   0.200   0.000    0.00
  20.850   17.03    6.99    0.24   0.000   0.200   0.000    0.00
  20.900   17.08    8.28    0.60   0.000   0.200   0.000    0.00
  20.950   17.39    7.87    0.31   0.000   0.200   0.000    0.00
  21.000   18.02    9.83    0.60   0.000   0.200   0.000    0.00
  21.050   19.02    9.55    0.43   0.000   0.200   0.000    0.00
  21.100   18.68    9.12   -0.30   0.000   0.200   0.000    0.00
  21.150   18.61    8.69    0.10   0.000   0.200   0.000    0.00
  21.200   18.78    6.84   -0.21   0.000   0.200   0.000    0.00
  21.250   18.95    9.82   -0.18   0.000   0.200   0.000    0.00
  21.300   18.75    7.36    0.53   0.000   0.200   0.000    0.00
  21.350   18.40    5.80   -0.31   0.000   0.200   0.000    0.00
  21.400   18.23    5.52   -0.77   0.000   0.200   0.000    0.00
  21.450   19.56    8.74   -1.05   0.000   0.200   0.000    0.00
  21.500   18.33   10.65   -0.65   0.000   0.200   0.000    0.00
  21.550   18.04   12.64    0.71   0.000   0.200   0.000    0.00
  21.600   17.52   16.19    0.74   0.000   0.200   0.000    0.00
  21.650   17.29   16.19    0.81   0.000   0.200   0.000    0.00
  21.700   18.01   16.34    1.28   0.000   0.200   0.000    0.00
  21.750   18.09   15.11    1.64   0.000   0.200   0.000    0.00
  21.800   17.98   14.96    1.13   0.000   0.200   0.000    0.00
  21.850   17.19   17.30    1.12   0.000   0.200   0.000    0.00
  21.900   17.17   16.79    0.92   0.000   0.200   0.000    0.00
  21.950   16.70   14.45    1.74   0.000   0.200   0.000    0.00
  22.000   17.20   10.66    1.84   0.000   0.200   0.000    0.00
  22.050   16.80   10.12    1.60   0.000   0.200   0.000    0.00
  22.100   17.12    9.50    1.08   0.000   0.200   0.000    0.00
  22.150   17.82   10.15    1.31   0.000   0.200   0.000    0.00
  22.200   17.68   10.69    1.18   0.000   0.200   0.000    0.00
  22.250   16.77    8.96    1.27   0.000   0.200   0.000    0.00
  22.300   16.52    7.35    1.12   0.000   0.200   0.000    0.00
  22.350   16.22    6.51    1.26   0.000   0.200   0.000    0.00