! This hub-height wind-speed file was generated by TurbSim (v1.06.00, 21-Sep-2012) on 16-Jun-2018 at 18:31:49.
!
! The requested statistics for this data were:
!    Mean Total Wind Speed =   13.000 m/s
!    Turbulence Intensity  =   24.640%
!
!   Time  HorSpd  WndDir  VerSpd  HorShr  VerShr  LnVShr  GstSpd
!  (sec)   (m/s)   (deg)   (m/s)     (-)     (-)     (-)   (m/s)
   0.000   18.16   11.28    2.03   0.000   0.200   0.000    0.00
   0.050   17.55   11.39    1.76   0.000   0.200   0.000    0.00
   0.100   17.41   12.86    1.28   0.000   0.200   0.000    0.00
   0.150   17.75   10.75    1.32   0.000   0.200   0.000    0.00
   0.200   17.33    6.22    0.84   0.000   0.200   0.000    0.00
   0.250   17.37    7.67    0.34   0.000   0.200   0.000    0.00
   0.300   16.81   10.08    0.21   0.000   0.200   0.000    0.00
   0.350   16.05    9.49    0.42   0.000   0.200   0.000    0.00
   0.400   16.13   12.72    0.66   0.000   0.200   0.000    0.00
   0.450   16.42   11.18    0.98   0.000   0.200   0.000    0.00
   0.500   16.58   11.35    0.42   0.000   0.200   0.000    0.00
   0.550   17.44   10.53   -0.22   0.000   0.200   0.000    0.00
   0.600   17.38    9.28    0.20   0.000   0.200   0.000    0.00
   0.650   17.41    8.55    0.50   0.000   0.200   0.000    0.00
   0.700   16.98    8.08   -0.23   0.000   0.200   0.000    0.00
   0.750   17.79    7.83    0.77   0.000   0.200   0.000    0.00
   0.800   16.96    9.99    1.51   0.000   0.200   0.000    0.00
   0.850   17.50   10.97    1.40   0.000   0.200   0.000    0.00
   0.900   17.11    9.43    0.66   0.000   0.200   0.000    0.00
   0.950   17.21   10.04    0.52   0.000   0.200   0.000    0.00
   1.000   17.09    8.59    0.82   0.000   0.200   0.000    0.00
   1.050   16.55    9.24   -0.02   0.000   0.200   0.000    0.00
   1.100   16.46    7.65    0.31   0.000   0.200   0.000    0.00
   1.150   17.22    7.80    0.95   0.000   0.200   0.000    0.00
   1.200   17.65    7.44    1.33   0.000   0.200   0.000    0.00
   1.250   17.56    5.99    0.60   0.000   0.200   0.000    0.00
   1.300   17.91    9.15    0.88   0.000   0.200   0.000    0.00
   1.350   17.48    9.18   -0.35   0.000   0.200   0.000    0.00
   1.400   17.57   11.06    0.74   0.000   0.200   0.000    0.00
   1.450   18.35   11.43    0.96   0.000   0.200   0.000    0.00
   1.500   17.81   11.83    0.69   0.000   0.200   0.000    0.00
   1.550   18.04   12.70    1.63   0.000   0.200   0.000    0.00
   1.600   18.29   13.52    1.60   0.000   0.200   0.000    0.00
   1.650   18.46   13.14    2.21   0.000   0.200   0.000    0.00
   1.700   18.01   13.16    2.57   0.000   0.200   0.000    0.00
   1.750   17.63   11.98    2.99   0.000   0.200   0.000    0.00
   1.800   17.84   11.42    2.90   0.000   0.200   0.000    0.00
   1.850   17.60   10.22    2.37   0.000   0.200   0.000    0.00
   1.900   17.33   10.14    2.77   0.000   0.200   0.000    0.00
   1.950   17.19    9.77    2.37   0.000   0.200   0.000    0.00
   2.000   17.40    7.56    2.96   0.000   0.200   0.000    0.00
   2.050   18.33    9.15    3.29   0.000   0.200   0.000    0.00
   2.100   19.45    8.55    2.53   0.000   0.200   0.000    0.00
   2.150   19.86    9.54    1.92   0.000   0.200   0.000    0.00
   2.200   20.08   10.19    1.15   0.000   0.200   0.000    0.00
   2.250   19.31   11.73    1.31   0.000   0.200   0.000    0.00
   2.300   19.60   12.06    1.13   0.000   0.200   0.000    0.00
   2.350   18.41    9.49    0.59   0.000   0.200   0.000    0.00
   2.400   18.15    7.87   -0.20   0.000   0.200   0.000    0.00
   2.450   18.66    5.77    0.07   0.000   0.200   0.000    0.00
   2.500   19.27    3.86    0.66   0.000   0.200   0.000    0.00
   2.550   19.41    4.08    1.63   0.000   0.200   0.000    0.00
   2.600   19.41    5.80    1.41   0.000   0.200   0.000    0.00
   2.650   18.39    5.92    0.98   0.000   0.200   0.000    0.00
   2.700   18.09    8.12    0.26   0.000   0.200   0.000    0.00
   2.750   18.69    7.93    0.14   0.000   0.200   0.000    0.00
   2.800   17.44    6.07   -0.06   0.000   0.200   0.000    0.00
   2.850   16.86    1.98   -0.52   0.000   0.200   0.000    0.00
   2.900   16.67    3.59   -1.80   0.000   0.200   0.000    0.00
   2.950   15.82    2.42   -0.48   0.000   0.200   0.000    0.00
   3.000   16.15    6.10    0.27   0.000   0.200   0.000    0.00
   3.050   16.63    2.27    0.23   0.000   0.200   0.000    0.00
   3.100   16.96    5.53   -0.03   0.000   0.200   0.000    0.00
   3.150   16.80    6.17   -1.21   0.000   0.200   0.000    0.00
   3.200   16.39    7.91   -0.49   0.000   0.200   0.000    0.00
   3.250   16.14    7.38   -0.86   0.000   0.200   0.000    0.00
   3.300   14.47   10.48   -1.29   0.000   0.200   0.000    0.00
   3.350   14.36   11.05   -1.05   0.000   0.200   0.000    0.00
   3.400   14.83   10.19   -0.68   0.000   0.200   0.000    0.00
   3.450   15.18    8.13    0.69   0.000   0.200   0.000    0.00
   3.500   15.29   12.06    0.45   0.000   0.200   0.000    0.00
   3.550   14.81    9.63   -0.30   0.000   0.200   0.000    0.00
   3.600   15.03    9.06   -0.75   0.000   0.200   0.000    0.00
   3.650   15.11    6.91    0.44   0.000   0.200   0.000    0.00
   3.700   14.79    5.71    0.48   0.000   0.200   0.000    0.00
   3.750   14.52    4.11    0.01   0.000   0.200   0.000    0.00
   3.800   14.93   -0.32    0.21   0.000   0.200   0.000    0.00
   3.850   14.83    3.24    0.19   0.000   0.200   0.000    0.00
   3.900   14.91    7.64    0.65   0.000   0.200   0.000    0.00
   3.950   14.32    9.66    1.14   0.000   0.200   0.000    0.00
   4.000   14.57    7.54    0.41   0.000   0.200   0.000    0.00
   4.050   14.39    6.06    0.81   0.000   0.200   0.000    0.00
   4.100   14.72    3.54    1.08   0.000   0.200   0.000    0.00
   4.150   15.59    3.90    0.40   0.000   0.200   0.000    0.00
   4.200   15.91    2.49    0.85   0.000   0.200   0.000    0.00
   4.250   16.33    3.74   -0.19   0.000   0.200   0.000    0.00
   4.300   16.23   -0.81    0.24   0.000   0.200   0.000    0.00
   4.350   16.52   -1.18    1.01   0.000   0.200   0.000    0.00
   4.400   16.25   -0.60    0.47   0.000   0.200   0.000    0.00
   4.450   16.32    5.37    0.85   0.000   0.200   0.000    0.00
   4.500   16.00    3.83   -0.11   0.000   0.200   0.000    0.00
   4.550   15.34    4.65   -0.72   0.000   0.200   0.000    0.00
   4.600   14.16    3.79    0.02   0.000   0.200   0.000    0.00
   4.650   14.30    1.35    0.20   0.000   0.200   0.000    0.00
   4.700   14.15    1.72    1.05   0.000   0.200   0.000    0.00
   4.750   13.81    6.13    1.34   0.000   0.200   0.000    0.00
   4.800   14.61    8.51    1.65   0.000   0.200   0.000    0.00
   4.850   15.32    9.69    1.58   0.000   0.200   0.000    0.00
   4.900   14.89    8.69    1.27   0.000   0.200   0.000    0.00
   4.950   14.78    8.34    0.97   0.000   0.200   0.000    0.00
   5.000   14.05    6.78    0.22   0.000   0.200   0.000    0.00
   5.050   13.79   10.02    0.75   0.000   0.200   0.000    0.00
   5.100   13.26   14.33    0.48   0.000   0.200   0.000    0.00
   5.150   13.34   10.65   -0.16   0.000   0.200   0.000    0.00
   5.200   13.91   13.10    0.38   0.000   0.200   0.000    0.00
   5.250   13.98   13.81   -0.60   0.000   0.200   0.000    0.00
   5.300   14.39   12.95   -0.78   0.000   0.200   0.000    0.00
   5.350   14.22   13.42   -0.83   0.000   0.200   0.000    0.00
   5.400   13.63   13.47   -0.76   0.000   0.200   0.000    0.00
   5.450   14.24   13.41   -0.90   0.000   0.200   0.000    0.00
   5.500   13.60    8.77   -0.53   0.000   0.200   0.000    0.00
   5.550   13.49    7.02   -0.83   0.000   0.200   0.000    0.00
   5.600   13.25    8.63   -0.32   0.000   0.200   0.000    0.00
   5.650   13.18   11.43   -0.02   0.000   0.200   0.000    0.00
   5.700   12.74   12.39   -0.59   0.000   0.200   0.000    0.00
   5.750   12.37   14.15   -0.90   0.000   0.200   0.000    0.00
   5.800   12.77   17.87   -1.24   0.000   0.200   0.000    0.00
   5.850   13.55   12.26   -1.06   0.000   0.200   0.000    0.00
   5.900   13.33   11.61   -1.02   0.000   0.200   0.000    0.00
   5.950   12.71   10.54   -0.48   0.000   0.200   0.000    0.00
   6.000   12.56    8.38   -0.89   0.000   0.200   0.000    0.00
   6.050   12.71    9.54   -1.25   0.000   0.200   0.000    0.00
   6.100   12.68    3.86   -0.67   0.000   0.200   0.000    0.00
   6.150   13.45    4.87   -0.85   0.000   0.200   0.000    0.00
   6.200   12.15    6.06   -1.19   0.000   0.200   0.000    0.00
   6.250   12.10    2.87   -0.19   0.000   0.200   0.000    0.00
   6.300   12.46    1.99    0.42   0.000   0.200   0.000    0.00
   6.350   11.84    2.36    0.37   0.000   0.200   0.000    0.00
   6.400   11.73    2.63    1.11   0.000   0.200   0.000    0.00
   6.450   12.13   -1.26    1.34   0.000   0.200   0.000    0.00
   6.500   11.86   -2.02    0.10   0.000   0.200   0.000    0.00
   6.550   12.27    2.38   -0.16   0.000   0.200   0.000    0.00
   6.600   11.73    2.39   -0.10   0.000   0.200   0.000    0.00
   6.650   11.65    1.22   -0.01   0.000   0.200   0.000    0.00
   6.700   11.89    1.57   -0.11   0.000   0.200   0.000    0.00
   6.750   12.19    1.87    0.26   0.000   0.200   0.000    0.00
   6.800   11.96    6.37    0.25   0.000   0.200   0.000    0.00
   6.850   11.65    7.91    0.33   0.000   0.200   0.000    0.00
   6.900   11.62    8.85    1.18   0.000   0.200   0.000    0.00
   6.950   12.17    6.71    0.19   0.000   0.200   0.000    0.00
   7.000   11.70    8.25    0.87   0.000   0.200   0.000    0.00
   7.050   12.17   11.64    0.25   0.000   0.200   0.000    0.00
   7.100   12.12    8.97   -0.18   0.000   0.200   0.000    0.00
   7.150   12.15   12.39    0.52   0.000   0.200   0.000    0.00
   7.200   11.95   15.42    1.47   0.000   0.200   0.000    0.00
   7.250   11.59   14.74    1.52   0.000   0.200   0.000    0.00
   7.300   12.12   22.53    1.15   0.000   0.200   0.000    0.00
   7.350   12.04   18.73    1.79   0.000   0.200   0.000    0.00
   7.400   12.68   14.85    1.27   0.000   0.200   0.000    0.00
   7.450   12.81   14.45    0.91   0.000   0.200   0.000    0.00
   7.500   12.00   13.56    0.17   0.000   0.200   0.000    0.00
   7.550   11.98   14.81    0.80   0.000   0.200   0.000    0.00
   7.600   13.18   12.29    1.00   0.000   0.200   0.000    0.00
   7.650   13.33   13.46    1.27   0.000   0.200   0.000    0.00
   7.700   13.81   12.44   -0.40   0.000   0.200   0.000    0.00
   7.750   14.47    7.47   -0.79   0.000   0.200   0.000    0.00
   7.800   14.23   10.30   -0.27   0.000   0.200   0.000    0.00
   7.850   14.53    5.40   -0.49   0.000   0.200   0.000    0.00
   7.900   13.29    4.39   -0.37   0.000   0.200   0.000    0.00
   7.950   13.88    6.89   -0.28   0.000   0.200   0.000    0.00
   8.000   13.53    3.73    0.71   0.000   0.200   0.000    0.00
   8.050   13.50    1.33    0.76   0.000   0.200   0.000    0.00
   8.100   13.50    2.60   -0.04   0.000   0.200   0.000    0.00
   8.150   13.00    2.60    0.45   0.000   0.200   0.000    0.00
   8.200   13.67    5.66   -0.30   0.000   0.200   0.000    0.00
   8.250   13.89    4.71   -0.15   0.000   0.200   0.000    0.00
   8.300   14.45   -0.21    0.39   0.000   0.200   0.000    0.00
   8.350   15.05   -0.12    0.88   0.000   0.200   0.000    0.00
   8.400   14.69   -1.15    1.53   0.000   0.200   0.000    0.00
   8.450   14.60   -0.15    0.10   0.000   0.200   0.000    0.00
   8.500   14.06   -1.14   -0.23   0.000   0.200   0.000    0.00
   8.550   14.36    0.04    0.29   0.000   0.200   0.000    0.00
   8.600   14.06    2.47    0.19   0.000   0.200   0.000    0.00
   8.650   13.95   -0.09   -0.53   0.000   0.200   0.000    0.00
   8.700   13.72   -0.33    0.94   0.000   0.200   0.000    0.00
   8.750   14.11   -2.26    1.24   0.000   0.200   0.000    0.00
   8.800   14.20    0.24    1.56   0.000   0.200   0.000    0.00
   8.850   14.18    1.75    0.41   0.000   0.200   0.000    0.00
   8.900   14.45    2.45   -0.47   0.000   0.200   0.000    0.00
   8.950   14.40    2.54    0.37   0.000   0.200   0.000    0.00
   9.000   14.29    4.06    0.87   0.000   0.200   0.000    0.00
   9.050   14.89    7.33    0.88   0.000   0.200   0.000    0.00
   9.100   15.32    8.43    0.63   0.000   0.200   0.000    0.00
   9.150   15.14   10.12   -0.21   0.000   0.200   0.000    0.00
   9.200   14.58    7.35   -0.33   0.000   0.200   0.000    0.00
   9.250   14.36    6.50   -0.26   0.000   0.200   0.000    0.00
   9.300   14.53    6.29   -0.54   0.000   0.200   0.000    0.00
   9.350   14.78    5.53   -0.22   0.000   0.200   0.000    0.00
   9.400   14.63    8.87   -0.06   0.000   0.200   0.000    0.00
   9.450   14.35    7.48   -0.44   0.000   0.200   0.000    0.00
   9.500   14.24   10.77   -1.52   0.000   0.200   0.000    0.00
   9.550   13.72   10.69   -0.30   0.000   0.200   0.000    0.00
   9.600   13.55    5.02   -1.31   0.000   0.200   0.000    0.00
   9.650   13.47    3.94   -0.87   0.000   0.200   0.000    0.00
   9.700   14.05    9.52   -1.19   0.000   0.200   0.000    0.00
   9.750   13.96   11.20   -1.50   0.000   0.200   0.000    0.00
   9.800   13.90    5.10   -0.82   0.000   0.200   0.000    0.00
   9.850   14.92    9.07   -0.85   0.000   0.200   0.000    0.00
   9.900   14.81   11.04   -0.05   0.000   0.200   0.000    0.00
   9.950   14.97    9.38   -0.51   0.000   0.200   0.000    0.00
  10.000   15.67   10.16   -1.32   0.000   0.200   0.000    0.00
  10.050   16.20    9.50   -1.45   0.000   0.200   0.000    0.00
  10.100   16.58    9.75   -1.34   0.000   0.200   0.000    0.00
  10.150   17.00    8.32   -2.33   0.000   0.200   0.000    0.00
  10.200   15.79    7.99   -3.03   0.000   0.200   0.000    0.00
  10.250   15.35   12.30   -3.47   0.000   0.200   0.000    0.00
  10.300   15.40   13.81   -3.49   0.000   0.200   0.000    0.00
  10.350   14.59   13.60   -3.11   0.000   0.200   0.000    0.00
  10.400   15.33   14.13   -2.56   0.000   0.200   0.000    0.00
  10.450   15.12   12.88   -1.40   0.000   0.200   0.000    0.00
  10.500   16.74   10.29   -0.81   0.000   0.200   0.000    0.00
  10.550   15.85   12.85   -1.20   0.000   0.200   0.000    0.00
  10.600   15.20   13.22   -0.33   0.000   0.200   0.000    0.00
  10.650   15.40   15.91   -0.55   0.000   0.200   0.000    0.00
  10.700   15.39   18.38   -1.47   0.000   0.200   0.000    0.00
  10.750   15.42   16.83   -0.61   0.000   0.200   0.000    0.00
  10.800   15.28   13.06    0.19   0.000   0.200   0.000    0.00
  10.850   15.81   12.84   -0.72   0.000   0.200   0.000    0.00
  10.900   15.89   12.73   -1.49   0.000   0.200   0.000    0.00
  10.950   17.39   11.44   -0.44   0.000   0.200   0.000    0.00
  11.000   18.83   10.13    0.24   0.000   0.200   0.000    0.00
  11.050   18.80   12.22   -0.38   0.000   0.200   0.000    0.00
  11.100   18.42   15.60   -0.67   0.000   0.200   0.000    0.00
  11.150   18.24   11.47    0.04   0.000   0.200   0.000    0.00
  11.200   17.02   10.83   -0.58   0.000   0.200   0.000    0.00
  11.250   16.81   11.26   -0.23   0.000   0.200   0.000    0.00
  11.300   18.69    8.19   -0.98   0.000   0.200   0.000    0.00
  11.350   18.04    7.41   -0.73   0.000   0.200   0.000    0.00
  11.400   17.48    7.24   -0.02   0.000   0.200   0.000    0.00
  11.450   17.61    6.36    0.09   0.000   0.200   0.000    0.00
  11.500   17.13    7.13   -0.31   0.000   0.200   0.000    0.00
  11.550   17.09    5.38   -0.55   0.000   0.200   0.000    0.00
  11.600   16.95    1.14   -0.79   0.000   0.200   0.000    0.00
  11.650   16.00    1.18   -1.18   0.000   0.200   0.000    0.00
  11.700   15.64    5.54   -1.90   0.000   0.200   0.000    0.00
  11.750   15.07    4.66   -1.32   0.000   0.200   0.000    0.00
  11.800   15.49    6.81   -1.12   0.000   0.200   0.000    0.00
  11.850   15.81    7.99   -0.97   0.000   0.200   0.000    0.00
  11.900   15.97    5.22   -0.95   0.000   0.200   0.000    0.00
  11.950   15.43    7.02   -1.32   0.000   0.200   0.000    0.00
  12.000   14.24    8.78   -1.08   0.000   0.200   0.000    0.00
  12.050   15.14   10.95   -0.72   0.000   0.200   0.000    0.00
  12.100   15.00   12.68   -1.44   0.000   0.200   0.000    0.00
  12.150   15.68   10.82   -1.34   0.000   0.200   0.000    0.00
  12.200   15.70   15.35   -1.32   0.000   0.200   0.000    0.00
  12.250   15.28   13.32   -1.40   0.000   0.200   0.000    0.00
  12.300   16.39   10.04   -0.95   0.000   0.200   0.000    0.00
  12.350   17.15    9.62   -0.90   0.000   0.200   0.000    0.00
  12.400   17.70    8.74    0.20   0.000   0.200   0.000    0.00
  12.450   17.74   10.42   -0.32   0.000   0.200   0.000    0.00
  12.500   15.98    7.23    0.00   0.000   0.200   0.000    0.00
  12.550   17.08    8.72   -0.27   0.000   0.200   0.000    0.00
  12.600   17.22   11.29   -0.16   0.000   0.200   0.000    0.00
  12.650   17.54   12.69   -0.94   0.000   0.200   0.000    0.00
  12.700   17.56   11.73   -0.45   0.000   0.200   0.000    0.00
  12.750   16.84   11.10   -1.14   0.000   0.200   0.000    0.00
  12.800   16.99   12.25   -1.84   0.000   0.200   0.000    0.00
  12.850   16.54   13.96   -1.13   0.000   0.200   0.000    0.00
  12.900   16.36   13.28   -1.40   0.000   0.200   0.000    0.00
  12.950   16.22   14.17   -1.41   0.000   0.200   0.000    0.00
  13.000   16.09   15.06   -0.17   0.000   0.200   0.000    0.00
  13.050   15.71   16.75    0.69   0.000   0.200   0.000    0.00
  13.100   15.48   13.16    1.03   0.000   0.200   0.000    0.00
  13.150   15.80    9.86    1.41   0.000   0.200   0.000    0.00
  13.200   16.11   10.39    0.71   0.000   0.200   0.000    0.00
  13.250   16.56    9.14    1.96   0.000   0.200   0.000    0.00
  13.300   16.75    7.35    1.16   0.000   0.200   0.000    0.00
  13.350   16.42    8.26    1.28   0.000   0.200   0.000    0.00
  13.400   16.26    8.03    0.82   0.000   0.200   0.000    0.00
  13.450   16.48    7.35    1.13   0.000   0.200   0.000    0.00
  13.500   15.90    9.09    1.60   0.000   0.200   0.000    0.00
  13.550   15.97    5.66    2.15   0.000   0.200   0.000    0.00
  13.600   15.89    4.40    1.61   0.000   0.200   0.000    0.00
  13.650   14.88    1.84    1.53   0.000   0.200   0.000    0.00
  13.700   14.52    1.76    2.64   0.000   0.200   0.000    0.00
  13.750   14.78    1.54    1.64   0.000   0.200   0.000    0.00
  13.800   14.48    2.55    1.34   0.000   0.200   0.000    0.00
  13.850   13.55   -0.91    2.04   0.000   0.200   0.000    0.00
  13.900   12.99   -3.47    1.63   0.000   0.200   0.000    0.00
  13.950   13.12   -5.22    1.67   0.000   0.200   0.000    0.00
  14.000   14.09   -5.52    1.81   0.000   0.200   0.000    0.00
  14.050   12.90   -4.78    1.05   0.000   0.200   0.000    0.00
  14.100   13.42   -3.43    1.29   0.000   0.200   0.000    0.00
  14.150   13.11   -4.60    0.66   0.000   0.200   0.000    0.00
  14.200   12.25   -4.23    0.21   0.000   0.200   0.000    0.00
  14.250   12.42   -4.95    0.98   0.000   0.200   0.000    0.00
  14.300   12.10   -7.08    1.47   0.000   0.200   0.000    0.00
  14.350   11.88   -7.88    1.62   0.000   0.200   0.000    0.00
  14.400   11.54   -3.67    1.18   0.000   0.200   0.000    0.00
  14.450   11.95   -7.62    1.49   0.000   0.200   0.000    0.00
  14.500   12.43   -8.96    2.14   0.000   0.200   0.000    0.00
  14.550   11.95   -8.91    1.96   0.000   0.200   0.000    0.00
  14.600   11.27   -4.79    1.79   0.000   0.200   0.000    0.00
  14.650   11.92   -2.14    1.57   0.000   0.200   0.000    0.00
  14.700   11.95   -2.77    2.50   0.000   0.200   0.000    0.00
  14.750   12.11   -1.65    3.11   0.000   0.200   0.000    0.00
  14.800   12.44   -2.96    3.02   0.000   0.200   0.000    0.00
  14.850   11.84   -2.58    3.62   0.000   0.200   0.000    0.00
  14.900   10.76    4.90    2.99   0.000   0.200   0.000    0.00
  14.950   10.33   10.04    2.76   0.000   0.200   0.000    0.00
  15.000   10.15   11.35    3.31   0.000   0.200   0.000    0.00
  15.050   10.58   14.73    3.72   0.000   0.200   0.000    0.00
  15.100   10.86   15.08    3.80   0.000   0.200   0.000    0.00
  15.150   10.71   15.53    3.74   0.000   0.200   0.000    0.00
  15.200   10.54   13.57    3.71   0.000   0.200   0.000    0.00
  15.250   11.06   11.08    2.87   0.000   0.200   0.000    0.00
  15.300   11.22   14.41    2.65   0.000   0.200   0.000    0.00
  15.350   11.06   12.26    3.39   0.000   0.200   0.000    0.00
  15.400   12.99   13.22    3.18   0.000   0.200   0.000    0.00
  15.450   13.10   13.93    3.98   0.000   0.200   0.000    0.00
  15.500   12.43   16.08    3.80   0.000   0.200   0.000    0.00
  15.550   12.85   14.89    4.49   0.000   0.200   0.000    0.00
  15.600   11.89    8.38    4.54   0.000   0.200   0.000    0.00
  15.650   12.29    2.65    4.93   0.000   0.200   0.000    0.00
  15.700   11.72   -0.87    5.00   0.000   0.200   0.000    0.00
  15.750   11.46   -2.27    5.68   0.000   0.200   0.000    0.00
  15.800   11.14    1.57    6.19   0.000   0.200   0.000    0.00
  15.850   10.95   -2.01    6.73   0.000   0.200   0.000    0.00
  15.900   10.41    2.48    6.32   0.000   0.200   0.000    0.00
  15.950   10.79   -3.35    4.72   0.000   0.200   0.000    0.00
  16.000   10.66   -4.43    4.98   0.000   0.200   0.000    0.00
  16.050   12.08   -3.23    4.73   0.000   0.200   0.000    0.00
  16.100   12.42   -4.18    4.85   0.000   0.200   0.000    0.00
  16.150   13.63   -8.37    3.56   0.000   0.200   0.000    0.00
  16.200   14.61   -6.64    4.03   0.000   0.200   0.000    0.00
  16.250   15.19   -8.34    5.65   0.000   0.200   0.000    0.00
  16.300   14.97   -6.70    6.03   0.000   0.200   0.000    0.00
  16.350   15.91   -6.26    4.71   0.000   0.200   0.000    0.00
  16.400   15.96   -4.59    4.47   0.000   0.200   0.000    0.00
  16.450   15.76   -2.01    3.33   0.000   0.200   0.000    0.00
  16.500   15.60   -0.14    3.19   0.000   0.200   0.000    0.00
  16.550   14.70   -0.24    3.77   0.000   0.200   0.000    0.00
  16.600   14.75   -1.85    3.81   0.000   0.200   0.000    0.00
  16.650   16.14    0.16    3.83   0.000   0.200   0.000    0.00
  16.700   15.73    5.45    4.16   0.000   0.200   0.000    0.00
  16.750   16.81    8.33    4.45   0.000   0.200   0.000    0.00
  16.800   16.53    7.29    3.69   0.000   0.200   0.000    0.00
  16.850   14.90    8.67    3.16   0.000   0.200   0.000    0.00
  16.900   14.59    6.09    3.72   0.000   0.200   0.000    0.00
  16.950   14.29    3.76    4.46   0.000   0.200   0.000    0.00
  17.000   14.19    3.93    3.70   0.000   0.200   0.000    0.00
  17.050   15.02    3.04    3.13   0.000   0.200   0.000    0.00
  17.100   14.61    4.28    3.34   0.000   0.200   0.000    0.00
  17.150   14.02    3.28    3.30   0.000   0.200   0.000    0.00
  17.200   14.02   -0.63    3.36   0.000   0.200   0.000    0.00
  17.250   13.60   -2.42    3.57   0.000   0.200   0.000    0.00
  17.300   14.28   -3.89    3.12   0.000   0.200   0.000    0.00
  17.350   13.46   -5.20    2.99   0.000   0.200   0.000    0.00
  17.400   12.76   -3.74    2.07   0.000   0.200   0.000    0.00
  17.450   12.41   -0.83    2.93   0.000   0.200   0.000    0.00
  17.500   13.31   -0.40    2.65   0.000   0.200   0.000    0.00
  17.550   13.09    2.93    1.70   0.000   0.200   0.000    0.00
  17.600   12.61    0.91    2.91   0.000   0.200   0.000    0.00
  17.650   12.20    0.89    2.55   0.000   0.200   0.000    0.00
  17.700   12.07    1.33    2.01   0.000   0.200   0.000    0.00
  17.750   11.23    5.49    1.31   0.000   0.200   0.000    0.00
  17.800   11.15    5.15    1.37   0.000   0.200   0.000    0.00
  17.850   11.37    2.63    1.92   0.000   0.200   0.000    0.00
  17.900   11.16    0.15    1.92   0.000   0.200   0.000    0.00
  17.950   11.62    0.94    1.14   0.000   0.200   0.000    0.00
  18.000   12.48    0.94    0.69   0.000   0.200   0.000    0.00
  18.050   12.57    4.02    0.84   0.000   0.200   0.000    0.00
  18.100   12.21    0.21    1.31   0.000   0.200   0.000    0.00
  18.150   12.87   -1.53    0.98   0.000   0.200   0.000    0.00
  18.200   12.19    0.77    0.78   0.000   0.200   0.000    0.00
  18.250   12.91    1.87    0.34   0.000   0.200   0.000    0.00
  18.300   12.12    3.82    0.98   0.000   0.200   0.000    0.00
  18.350   11.72    1.31   -0.06   0.000   0.200   0.000    0.00
  18.400   12.17    5.76   -0.68   0.000   0.200   0.000    0.00
  18.450   11.34    4.25   -0.26   0.000   0.200   0.000    0.00
  18.500   11.07    8.09    0.61   0.000   0.200   0.000    0.00
  18.550   11.51    7.38    0.87   0.000   0.200   0.000    0.00
  18.600   11.81    4.80    1.61   0.000   0.200   0.000    0.00
  18.650   11.19    3.23    1.21   0.000   0.200   0.000    0.00
  18.700   11.20    1.16    1.19   0.000   0.200   0.000    0.00
  18.750   12.48    1.67   -0.22   0.000   0.200   0.000    0.00
  18.800   12.79    0.46   -0.84   0.000   0.200   0.000    0.00
  18.850   12.97    5.24   -0.13   0.000   0.200   0.000    0.00
  18.900   12.49    6.68    0.71   0.000   0.200   0.000    0.00
  18.950   12.01    6.90    1.29   0.000   0.200   0.000    0.00
  19.000   12.82    5.71    0.49   0.000   0.200   0.000    0.00
  19.050   12.22    3.36    0.74   0.000   0.200   0.000    0.00
  19.100   12.38    3.40    0.52   0.000   0.200   0.000    0.00
  19.150   11.80    3.94    0.58   0.000   0.200   0.000    0.00
  19.200   12.21    2.83    1.74   0.000   0.200   0.000    0.00
  19.250   12.35    4.39    1.14   0.000   0.200   0.000    0.00
  19.300   12.31   -0.34    1.09   0.000   0.200   0.000    0.00
  19.350   12.78   -1.42    1.10   0.000   0.200   0.000    0.00
  19.400   14.22    2.11   -0.31   0.000   0.200   0.000    0.00
  19.450   14.05   -3.44   -0.76   0.000   0.200   0.000    0.00
  19.500   13.45   -6.77   -0.62   0.000   0.200   0.000    0.00
  19.550   13.55   -6.78   -0.56   0.000   0.200   0.000    0.00
  19.600   13.46   -9.34    0.75   0.000   0.200   0.000    0.00
  19.650   13.07  -10.19    1.25   0.000   0.200   0.000    0.00
  19.700   12.29   -3.39    1.97   0.000   0.200   0.000    0.00
  19.750   12.83   -5.74    1.78   0.000   0.200   0.000    0.00
  19.800   12.58   -2.73    1.33   0.000   0.200   0.000    0.00
  19.850   12.04   -5.92    1.45   0.000   0.200   0.000    0.00
  19.900   12.34   -2.97   -0.18   0.000   0.200   0.000    0.00
  19.950   12.37   -3.27   -0.34   0.000   0.200   0.000    0.00
  20.000   11.82   -4.80   -0.06   0.000   0.200   0.000    0.00
  20.050   12.35   -4.74    0.24   0.000   0.200   0.000    0.00
  20.100   12.43   -7.03    1.18   0.000   0.200   0.000    0.00
  20.150   12.57   -7.01    1.24   0.000   0.200   0.000    0.00
  20.200   13.20   -8.27    1.37   0.000   0.200   0.000    0.00
  20.250   12.78   -9.66    2.47   0.000   0.200   0.000    0.00
  20.300   12.47   -5.40    1.31   0.000   0.200   0.000    0.00
  20.350   12.64   -2.77    1.35   0.000   0.200   0.000    0.00
  20.400   13.14   -4.41    2.28   0.000   0.200   0.000    0.00
  20.450   12.89   -9.13    1.69   0.000   0.200   0.000    0.00
  20.500   13.55   -9.14    1.69   0.000   0.200   0.000    0.00
  20.550   13.14  -10.60    2.80   0.000   0.200   0.000    0.00
  20.600   12.92   -7.98    4.04   0.000   0.200   0.000    0.00
  20.650   13.11  -10.65    3.87   0.000   0.200   0.000    0.00
  20.700   12.27  -12.34    3.72   0.000   0.200   0.000    0.00
  20.750   12.11  -13.21    3.48   0.000   0.200   0.000    0.00
  20.800   12.43  -10.13    3.25   0.000   0.200   0.000    0.00
  20.850   12.67   -8.22    3.09   0.000   0.200   0.000    0.00
  20.900   13.12  -11.75    3.01   0.000   0.200   0.000    0.00
  20.950   14.04   -9.80    4.33   0.000   0.200   0.000    0.00
  21.000   13.01   -6.97    4.78   0.000   0.200   0.000    0.00
  21.050   12.30   -3.14    4.78   0.000   0.200   0.000    0.00
  21.100   11.65   -2.52    4.36   0.000   0.200   0.000    0.00
  21.150   11.75   -0.19    4.85   0.000   0.200   0.000    0.00
  21.200   11.99   -3.17    4.70   0.000   0.200   0.000    0.00
  21.250   10.96   -1.29    5.21   0.000   0.200   0.000    0.00
  21.300   11.34   -2.18    5.48   0.000   0.200   0.000    0.00
  21.350   11.72   -1.39    5.46   0.000   0.200   0.000    0.00
  21.400   11.41    1.48    4.21   0.000   0.200   0.000    0.00
  21.450   11.26   -0.64    4.08   0.000   0.200   0.000    0.00
  21.500   11.28   -0.87    2.91   0.000   0.200   0.000    0.00
  21.550   11.46   -5.76    3.20   0.000   0.200   0.000    0.00
  21.600   12.12   -3.42    3.06   0.000   0.200   0.000    0.00
  21.650   12.16   -2.76    4.01   0.000   0.200   0.000    0.00
  21.700   12.34   -0.02    3.95   0.000   0.200   0.000    0.00
  21.750   13.00   -0.19    3.14   0.000   0.200   0.000    0.00
  21.800   12.47   -0.51    2.24   0.000   0.200   0.000    0.00
  21.850   12.49   -2.46    2.40   0.000   0.200   0.000    0.00
  21.900   12.65    0.04    3.09   0.000   0.200   0.000    0.00
  21.950   13.32   -1.51    3.52   0.000   0.200   0.000    0.00
  22.000   13.17    1.89    3.35   0.000   0.200   0.000    0.00
  22.050   13.13   -1.27    2.76   0.000   0.200   0.000    0.00
  22.100   12.84   -0.23    2.64   0.000   0.200   0.000    0.00
  22.150   12.82   -0.57    3.18   0.000   0.200   0.000    0.00
  22.200   12.62    1.28    3.09   0.000   0.200   0.000    0.00
  22.250   13.84   -2.33    2.48   0.000   0.200   0.000    0.00
  22.300   12.82    0.22    3.05   0.000   0.200   0.000    0.00
  22.350   13.12   -0.07    3.16   0.000   0.200   0.000    0.00