! This hub-height wind-speed file was generated by TurbSim (v1.06.00, 21-Sep-2012) on 16-Jun-2018 at 18:37:52.
!
! The requested statistics for this data were:
!    Mean Total Wind Speed =   19.000 m/s
!    Turbulence Intensity  =   19.405%
!
!   Time  HorSpd  WndDir  VerSpd  HorShr  VerShr  LnVShr  GstSpd
!  (sec)   (m/s)   (deg)   (m/s)     (-)     (-)     (-)   (m/s)
   0.000   18.77    6.99   -2.88   0.000   0.200   0.000    0.00
   0.050   17.89   11.48   -3.86   0.000   0.200   0.000    0.00
   0.100   17.77   10.26   -3.15   0.000   0.200   0.000    0.00
   0.150   18.04    6.27   -3.49   0.000   0.200   0.000    0.00
   0.200   18.56    7.62   -2.93   0.000   0.200   0.000    0.00
   0.250   19.17    1.35   -3.90   0.000   0.200   0.000    0.00
   0.300   19.68    3.39   -4.03   0.000   0.200   0.000    0.00
   0.350   19.46    3.96   -2.74   0.000   0.200   0.000    0.00
   0.400   19.39    2.20   -2.51   0.000   0.200   0.000    0.00
   0.450   19.56    4.53   -2.14   0.000   0.200   0.000    0.00
   0.500   20.02    7.56   -2.41   0.000   0.200   0.000    0.00
   0.550   19.80    7.45   -1.94   0.000   0.200   0.000    0.00
   0.600   20.69    8.38   -1.92   0.000   0.200   0.000    0.00
   0.650   21.33    3.10   -1.45   0.000   0.200   0.000    0.00
   0.700   21.85   -0.44   -1.27   0.000   0.200   0.000    0.00
   0.750   23.22    2.30   -0.76   0.000   0.200   0.000    0.00
   0.800   23.10    2.42   -1.32   0.000   0.200   0.000    0.00
   0.850   22.62    1.75   -1.85   0.000   0.200   0.000    0.00
   0.900   22.23    2.67   -0.15   0.000   0.200   0.000    0.00
   0.950   21.06    5.13    0.11   0.000   0.200   0.000    0.00
   1.000   21.14    3.16   -0.89   0.000   0.200   0.000    0.00
   1.050   20.99    4.87   -0.71   0.000   0.200   0.000    0.00
   1.100   20.27    4.12    0.36   0.000   0.200   0.000    0.00
   1.150   20.73    6.92    0.60   0.000   0.200   0.000    0.00
   1.200   21.25    8.87    0.15   0.000   0.200   0.000    0.00
   1.250   20.58   11.81   -0.17   0.000   0.200   0.000    0.00
   1.300   20.18    8.83    0.09   0.000   0.200   0.000    0.00
   1.350   20.28    8.51    0.05   0.000   0.200   0.000    0.00
   1.400   19.20    8.15   -0.90   0.000   0.200   0.000    0.00
   1.450   19.30    9.80   -1.26   0.000   0.200   0.000    0.00
   1.500   19.09    8.03   -2.03   0.000   0.200   0.000    0.00
   1.550   19.97    5.95   -3.52   0.000   0.200   0.000    0.00
   1.600   20.62    5.92   -4.52   0.000   0.200   0.000    0.00
   1.650   19.28    8.24   -4.09   0.000   0.200   0.000    0.00
   1.700   19.07    6.13   -3.05   0.000   0.200   0.000    0.00
   1.750   20.10    6.41   -2.37   0.000   0.200   0.000    0.00
   1.800   20.87    5.62   -1.20   0.000   0.200   0.000    0.00
   1.850   20.94    6.69   -1.10   0.000   0.200   0.000    0.00
   1.900   21.31   10.56   -0.47   0.000   0.200   0.000    0.00
   1.950   21.14    8.86   -1.20   0.000   0.200   0.000    0.00
   2.000   20.74    7.18   -1.00   0.000   0.200   0.000    0.00
   2.050   20.87    7.58    0.05   0.000   0.200   0.000    0.00
   2.100   19.86    3.66    0.97   0.000   0.200   0.000    0.00
   2.150   19.32    5.64    1.80   0.000   0.200   0.000    0.00
   2.200   19.95    7.49    3.45   0.000   0.200   0.000    0.00
   2.250   19.25    2.99    4.12   0.000   0.200   0.000    0.00
   2.300   19.39    4.93    3.09   0.000   0.200   0.000    0.00
   2.350   18.94    6.02    1.77   0.000   0.200   0.000    0.00
   2.400   18.43    4.78    1.83   0.000   0.200   0.000    0.00
   2.450   18.25   -0.12    1.34   0.000   0.200   0.000    0.00
   2.500   18.41    0.22    0.68   0.000   0.200   0.000    0.00
   2.550   19.30   -0.66    0.03   0.000   0.200   0.000    0.00
   2.600   19.49    0.89    0.49   0.000   0.200   0.000    0.00
   2.650   20.36    1.53    1.04   0.000   0.200   0.000    0.00
   2.700   20.55    0.14    0.97   0.000   0.200   0.000    0.00
   2.750   20.61   -2.18    0.78   0.000   0.200   0.000    0.00
   2.800   19.02   -0.54    1.39   0.000   0.200   0.000    0.00
   2.850   19.04    0.73    1.16   0.000   0.200   0.000    0.00
   2.900   18.30    4.33    1.28   0.000   0.200   0.000    0.00
   2.950   17.60    3.47    2.07   0.000   0.200   0.000    0.00
   3.000   18.14    0.70    2.00   0.000   0.200   0.000    0.00
   3.050   17.83    1.55    2.66   0.000   0.200   0.000    0.00
   3.100   17.78    2.08    2.31   0.000   0.200   0.000    0.00
   3.150   19.03    0.30    4.64   0.000   0.200   0.000    0.00
   3.200   18.35    0.69    3.99   0.000   0.200   0.000    0.00
   3.250   17.83   -0.19    4.72   0.000   0.200   0.000    0.00
   3.300   17.71   -1.68    5.75   0.000   0.200   0.000    0.00
   3.350   17.85    1.19    5.74   0.000   0.200   0.000    0.00
   3.400   17.66    2.56    5.00   0.000   0.200   0.000    0.00
   3.450   17.50    2.84    4.57   0.000   0.200   0.000    0.00
   3.500   16.60    1.65    4.47   0.000   0.200   0.000    0.00
   3.550   16.52    0.81    4.24   0.000   0.200   0.000    0.00
   3.600   16.47   -1.98    2.90   0.000   0.200   0.000    0.00
   3.650   17.65   -3.50    2.43   0.000   0.200   0.000    0.00
   3.700   18.44   -4.68    2.65   0.000   0.200   0.000    0.00
   3.750   18.15    0.59    2.51   0.000   0.200   0.000    0.00
   3.800   18.95    1.88    1.67   0.000   0.200   0.000    0.00
   3.850   18.80    0.06    2.68   0.000   0.200   0.000    0.00
   3.900   18.27    1.33    2.12   0.000   0.200   0.000    0.00
   3.950   18.92    1.40    2.32   0.000   0.200   0.000    0.00
   4.000   19.35    1.43    2.86   0.000   0.200   0.000    0.00
   4.050   19.50    3.13    2.86   0.000   0.200   0.000    0.00
   4.100   20.16    0.53    2.94   0.000   0.200   0.000    0.00
   4.150   20.41   -1.23    2.29   0.000   0.200   0.000    0.00
   4.200   19.91   -1.94    3.00   0.000   0.200   0.000    0.00
   4.250   20.87    1.51    3.22   0.000   0.200   0.000    0.00
   4.300   20.65   -0.64    3.58   0.000   0.200   0.000    0.00
   4.350   21.15   -0.52    3.78   0.000   0.200   0.000    0.00
   4.400   20.98   -0.84    3.57   0.000   0.200   0.000    0.00
   4.450   20.23   -2.43    2.95   0.000   0.200   0.000    0.00
   4.500   19.88   -2.38    1.66   0.000   0.200   0.000    0.00
   4.550   20.02   -3.92    1.24   0.000   0.200   0.000    0.00
   4.600   20.51   -4.51   -0.15   0.000   0.200   0.000    0.00
   4.650   19.28   -1.65    1.71   0.000   0.200   0.000    0.00
   4.700   17.88    2.85    0.74   0.000   0.200   0.000    0.00
   4.750   18.31    0.88    1.78   0.000   0.200   0.000    0.00
   4.800   18.07   -0.31    1.46   0.000   0.200   0.000    0.00
   4.850   17.52    2.73    1.46   0.000   0.200   0.000    0.00
   4.900   17.07    0.13    2.68   0.000   0.200   0.000    0.00
   4.950   17.32    0.21    2.46   0.000   0.200   0.000    0.00
   5.000   17.16    2.49    2.33   0.000   0.200   0.000    0.00
   5.050   17.56    3.81    1.01   0.000   0.200   0.000    0.00
   5.100   17.18   -0.66    0.46   0.000   0.200   0.000    0.00
   5.150   16.57    0.14    0.37   0.000   0.200   0.000    0.00
   5.200   18.17    0.55    0.67   0.000   0.200   0.000    0.00
   5.250   17.25    0.84    1.76   0.000   0.200   0.000    0.00
   5.300   16.32    4.45    2.46   0.000   0.200   0.000    0.00
   5.350   17.21    5.98    1.47   0.000   0.200   0.000    0.00
   5.400   17.74    5.60    2.38   0.000   0.200   0.000    0.00
   5.450   16.65    4.35    2.56   0.000   0.200   0.000    0.00
   5.500   16.84    2.71    1.38   0.000   0.200   0.000    0.00
   5.550   16.49    2.11    1.99   0.000   0.200   0.000    0.00
   5.600   16.49    7.05    2.03   0.000   0.200   0.000    0.00
   5.650   17.02   10.25    2.27   0.000   0.200   0.000    0.00
   5.700   17.22   11.37    2.45   0.000   0.200   0.000    0.00
   5.750   17.45   14.13    2.02   0.000   0.200   0.000    0.00
   5.800   18.65   21.41    0.46   0.000   0.200   0.000    0.00
   5.850   18.59   17.51   -0.01   0.000   0.200   0.000    0.00
   5.900   18.05   17.79    0.37   0.000   0.200   0.000    0.00
   5.950   18.06   19.21   -0.91   0.000   0.200   0.000    0.00
   6.000   17.08   19.44   -0.75   0.000   0.200   0.000    0.00
   6.050   17.31   18.50   -1.29   0.000   0.200   0.000    0.00
   6.100   16.80   18.60   -1.01   0.000   0.200   0.000    0.00
   6.150   16.82   16.38   -0.79   0.000   0.200   0.000    0.00
   6.200   16.56   16.17    0.71   0.000   0.200   0.000    0.00
   6.250   16.75   15.78   -0.09   0.000   0.200   0.000    0.00
   6.300   16.28   16.64   -0.51   0.000   0.200   0.000    0.00
   6.350   16.10   13.58   -0.64   0.000   0.200   0.000    0.00
   6.400   15.62   17.98   -0.94   0.000   0.200   0.000    0.00
   6.450   15.20   18.68   -0.82   0.000   0.200   0.000    0.00
   6.500   14.81   14.21   -1.22   0.000   0.200   0.000    0.00
   6.550   13.13   14.16   -2.53   0.000   0.200   0.000    0.00
   6.600   13.11   13.89   -1.09   0.000   0.200   0.000    0.00
   6.650   13.99   12.48   -1.43   0.000   0.200   0.000    0.00
   6.700   14.33   12.62    0.03   0.000   0.200   0.000    0.00
   6.750   15.04   12.75    1.31   0.000   0.200   0.000    0.00
   6.800   14.53   15.58    1.07   0.000   0.200   0.000    0.00
   6.850   16.36   20.02    1.52   0.000   0.200   0.000    0.00
   6.900   15.82   20.75   -0.14   0.000   0.200   0.000    0.00
   6.950   17.14   24.64   -0.70   0.000   0.200   0.000    0.00
   7.000   16.76   27.71   -0.78   0.000   0.200   0.000    0.00
   7.050   17.67   29.54   -0.62   0.000   0.200   0.000    0.00
   7.100   18.05   27.19   -1.82   0.000   0.200   0.000    0.00
   7.150   17.92   25.01   -1.06   0.000   0.200   0.000    0.00
   7.200   18.04   25.10    0.34   0.000   0.200   0.000    0.00
   7.250   16.20   22.84    0.04   0.000   0.200   0.000    0.00
   7.300   16.87   18.77    0.79   0.000   0.200   0.000    0.00
   7.350   17.81   18.12    1.18   0.000   0.200   0.000    0.00
   7.400   17.98   20.53    0.81   0.000   0.200   0.000    0.00
   7.450   18.89   20.30    1.43   0.000   0.200   0.000    0.00
   7.500   18.83   21.78    1.02   0.000   0.200   0.000    0.00
   7.550   18.29   18.36    2.35   0.000   0.200   0.000    0.00
   7.600   17.72   14.16    2.89   0.000   0.200   0.000    0.00
   7.650   17.98   18.98    3.07   0.000   0.200   0.000    0.00
   7.700   16.35   15.40    3.97   0.000   0.200   0.000    0.00
   7.750   16.11   15.23    3.72   0.000   0.200   0.000    0.00
   7.800   15.96   11.77    3.04   0.000   0.200   0.000    0.00
   7.850   16.59   11.16    2.71   0.000   0.200   0.000    0.00
   7.900   17.59   11.37    2.68   0.000   0.200   0.000    0.00
   7.950   17.10    9.67    2.36   0.000   0.200   0.000    0.00
   8.000   17.67    8.73    3.10   0.000   0.200   0.000    0.00
   8.050   17.70    6.81    2.00   0.000   0.200   0.000    0.00
   8.100   18.08    9.25    0.79   0.000   0.200   0.000    0.00
   8.150   18.06    8.12    2.34   0.000   0.200   0.000    0.00
   8.200   16.71    5.83    2.69   0.000   0.200   0.000    0.00
   8.250   17.44    4.60    1.72   0.000   0.200   0.000    0.00
   8.300   18.88    4.58    0.68   0.000   0.200   0.000    0.00
   8.350   18.09    6.70    0.10   0.000   0.200   0.000    0.00
   8.400   17.75    2.35    0.83   0.000   0.200   0.000    0.00
   8.450   18.70    6.88    1.38   0.000   0.200   0.000    0.00
   8.500   18.55    6.45    2.52   0.000   0.200   0.000    0.00
   8.550   17.82    4.64    3.36   0.000   0.200   0.000    0.00
   8.600   18.30    6.19    1.78   0.000   0.200   0.000    0.00
   8.650   18.63    4.70    2.40   0.000   0.200   0.000    0.00
   8.700   18.80    2.95    2.73   0.000   0.200   0.000    0.00
   8.750   17.97    1.75    3.00   0.000   0.200   0.000    0.00
   8.800   18.05    1.54    2.29   0.000   0.200   0.000    0.00
   8.850   17.79    1.26    1.89   0.000   0.200   0.000    0.00
   8.900   18.45   -0.42    1.89   0.000   0.200   0.000    0.00
   8.950   18.32    2.29    1.00   0.000   0.200   0.000    0.00
   9.000   17.51    2.04    1.86   0.000   0.200   0.000    0.00
   9.050   18.06    6.06    2.40   0.000   0.200   0.000    0.00
   9.100   18.25    1.98    2.04   0.000   0.200   0.000    0.00
   9.150   17.82    1.76    2.24   0.000   0.200   0.000    0.00
   9.200   17.97    2.44    3.10   0.000   0.200   0.000    0.00
   9.250   18.37    0.56    1.91   0.000   0.200   0.000    0.00
   9.300   18.41    0.60    2.07   0.000   0.200   0.000    0.00
   9.350   17.68   -1.74    1.59   0.000   0.200   0.000    0.00
   9.400   17.43    2.17    1.84   0.000   0.200   0.000    0.00
   9.450   16.93    4.83    2.35   0.000   0.200   0.000    0.00
   9.500   17.72    5.73    1.59   0.000   0.200   0.000    0.00
   9.550   17.65    4.60    2.19   0.000   0.200   0.000    0.00
   9.600   18.63    3.30    2.55   0.000   0.200   0.000    0.00
   9.650   18.02    4.38    2.75   0.000   0.200   0.000    0.00
   9.700   16.79    5.17    1.68   0.000   0.200   0.000    0.00
   9.750   16.74    4.29   -0.37   0.000   0.200   0.000    0.00
   9.800   15.53    5.49   -0.35   0.000   0.200   0.000    0.00
   9.850   14.85    4.85   -0.84   0.000   0.200   0.000    0.00
   9.900   14.80    6.86   -0.11   0.000   0.200   0.000    0.00
   9.950   14.49   11.43   -0.24   0.000   0.200   0.000    0.00
  10.000   14.56   16.08    0.23   0.000   0.200   0.000    0.00
  10.050   13.92   17.33   -0.53   0.000   0.200   0.000    0.00
  10.100   14.70   19.66   -0.62   0.000   0.200   0.000    0.00
  10.150   15.54   14.14    0.42   0.000   0.200   0.000    0.00
  10.200   16.07    9.94    0.20   0.000   0.200   0.000    0.00
  10.250   15.51    7.51    1.54   0.000   0.200   0.000    0.00
  10.300   15.81    6.69    2.30   0.000   0.200   0.000    0.00
  10.350   15.66    6.12    1.23   0.000   0.200   0.000    0.00
  10.400   16.33    5.60    0.40   0.000   0.200   0.000    0.00
  10.450   16.12    7.72    2.34   0.000   0.200   0.000    0.00
  10.500   16.74   12.34    2.05   0.000   0.200   0.000    0.00
  10.550   16.65   11.16    1.92   0.000   0.200   0.000    0.00
  10.600   16.53   12.46    2.62   0.000   0.200   0.000    0.00
  10.650   16.06   14.95    3.28   0.000   0.200   0.000    0.00
  10.700   15.90   17.49    3.06   0.000   0.200   0.000    0.00
  10.750   16.31   12.14    2.46   0.000   0.200   0.000    0.00
  10.800   16.21   16.73    1.94   0.000   0.200   0.000    0.00
  10.850   15.52   17.07    0.77   0.000   0.200   0.000    0.00
  10.900   15.77   15.26    0.94   0.000   0.200   0.000    0.00
  10.950   16.83   17.69    1.16   0.000   0.200   0.000    0.00
  11.000   15.07   15.39    1.40   0.000   0.200   0.000    0.00
  11.050   15.51   15.76    0.39   0.000   0.200   0.000    0.00
  11.100   16.38   20.16    0.27   0.000   0.200   0.000    0.00
  11.150   15.75   18.97    0.59   0.000   0.200   0.000    0.00
  11.200   15.02   18.42    1.19   0.000   0.200   0.000    0.00
  11.250   15.03   20.90    1.10   0.000   0.200   0.000    0.00
  11.300   15.87   23.09    1.06   0.000   0.200   0.000    0.00
  11.350   15.49   23.67    1.53   0.000   0.200   0.000    0.00
  11.400   15.08   23.46    1.07   0.000   0.200   0.000    0.00
  11.450   14.27   22.63    0.15   0.000   0.200   0.000    0.00
  11.500   14.35   25.95   -0.20   0.000   0.200   0.000    0.00
  11.550   16.19   23.72    0.18   0.000   0.200   0.000    0.00
  11.600   14.99   19.37    0.33   0.000   0.200   0.000    0.00
  11.650   16.01   18.63   -0.59   0.000   0.200   0.000    0.00
  11.700   15.34   16.04   -0.66   0.000   0.200   0.000    0.00
  11.750   15.31   16.56   -0.74   0.000   0.200   0.000    0.00
  11.800   15.74   14.89   -1.22   0.000   0.200   0.000    0.00
  11.850   15.39   10.86   -1.40   0.000   0.200   0.000    0.00
  11.900   16.02   14.30   -0.35   0.000   0.200   0.000    0.00
  11.950   14.84   10.48   -0.39   0.000   0.200   0.000    0.00
  12.000   15.21    9.21   -0.62   0.000   0.200   0.000    0.00
  12.050   14.51   10.59    0.10   0.000   0.200   0.000    0.00
  12.100   14.39    9.66    0.72   0.000   0.200   0.000    0.00
  12.150   14.49    3.87    1.49   0.000   0.200   0.000    0.00
  12.200   14.71    3.52    0.98   0.000   0.200   0.000    0.00
  12.250   14.84    4.35    0.84   0.000   0.200   0.000    0.00
  12.300   15.03    3.32    0.82   0.000   0.200   0.000    0.00
  12.350   15.53    4.34    0.41   0.000   0.200   0.000    0.00
  12.400   15.87    0.34    1.58   0.000   0.200   0.000    0.00
  12.450   15.16    0.75    1.78   0.000   0.200   0.000    0.00
  12.500   14.07    2.28    1.85   0.000   0.200   0.000    0.00
  12.550   12.90   10.12    1.69   0.000   0.200   0.000    0.00
  12.600   13.04   11.91    2.20   0.000   0.200   0.000    0.00
  12.650   12.36   18.46    2.77   0.000   0.200   0.000    0.00
  12.700   12.20   15.89    1.69   0.000   0.200   0.000    0.00
  12.750   12.84   14.82    1.52   0.000   0.200   0.000    0.00
  12.800   12.61   16.60    1.49   0.000   0.200   0.000    0.00
  12.850   12.40   17.05    0.99   0.000   0.200   0.000    0.00
  12.900   11.86   11.72    0.77   0.000   0.200   0.000    0.00
  12.950   11.81   12.63    0.61   0.000   0.200   0.000    0.00
  13.000   11.78   13.26    0.21   0.000   0.200   0.000    0.00
  13.050   10.20   11.77    1.69   0.000   0.200   0.000    0.00
  13.100   11.17    8.04   -0.46   0.000   0.200   0.000    0.00
  13.150   10.68    4.47   -0.22   0.000   0.200   0.000    0.00
  13.200   11.80    8.23   -0.28   0.000   0.200   0.000    0.00
  13.250   12.67    4.59   -0.78   0.000   0.200   0.000    0.00
  13.300   14.26    6.55   -1.33   0.000   0.200   0.000    0.00
  13.350   12.96    3.38   -0.74   0.000   0.200   0.000    0.00
  13.400   13.28    4.44   -1.81   0.000   0.200   0.000    0.00
  13.450   12.95    4.00   -1.97   0.000   0.200   0.000    0.00
  13.500   13.21    5.38   -2.15   0.000   0.200   0.000    0.00
  13.550   13.62    3.99   -3.17   0.000   0.200   0.000    0.00
  13.600   13.42    0.79   -3.73   0.000   0.200   0.000    0.00
  13.650   12.22    1.15   -2.47   0.000   0.200   0.000    0.00
  13.700   12.17    2.68   -1.70   0.000   0.200   0.000    0.00
  13.750   11.41    7.76   -1.86   0.000   0.200   0.000    0.00
  13.800   10.78    9.23   -1.30   0.000   0.200   0.000    0.00
  13.850   11.04    2.31   -1.82   0.000   0.200   0.000    0.00
  13.900   12.38    1.56   -2.34   0.000   0.200   0.000    0.00
  13.950   12.58   -5.08   -3.18   0.000   0.200   0.000    0.00
  14.000   12.03   -3.18   -3.27   0.000   0.200   0.000    0.00
  14.050   11.71   -2.10   -2.55   0.000   0.200   0.000    0.00
  14.100   11.89   -6.89   -3.25   0.000   0.200   0.000    0.00
  14.150   11.54   -6.12   -2.93   0.000   0.200   0.000    0.00
  14.200   12.01   -2.11   -2.60   0.000   0.200   0.000    0.00
  14.250   13.20    0.25   -3.03   0.000   0.200   0.000    0.00
  14.300   12.54    0.50   -2.91   0.000   0.200   0.000    0.00
  14.350   13.96    1.17   -1.07   0.000   0.200   0.000    0.00
  14.400   14.04    2.45   -0.36   0.000   0.200   0.000    0.00
  14.450   13.13    0.47    0.66   0.000   0.200   0.000    0.00
  14.500   13.97   -1.32   -0.26   0.000   0.200   0.000    0.00
  14.550   13.38    2.26   -1.71   0.000   0.200   0.000    0.00
  14.600   12.83    6.40   -0.94   0.000   0.200   0.000    0.00
  14.650   11.58   14.14   -1.38   0.000   0.200   0.000    0.00
  14.700   11.95   16.13   -1.88   0.000   0.200   0.000    0.00
  14.750   11.71   11.22   -2.04   0.000   0.200   0.000    0.00
  14.800   11.67    9.05   -2.73   0.000   0.200   0.000    0.00
  14.850   11.68    4.56   -3.12   0.000   0.200   0.000    0.00
  14.900   12.91    5.28   -1.71   0.000   0.200   0.000    0.00
  14.950   12.42    6.07   -1.99   0.000   0.200   0.000    0.00
  15.000   13.83    9.43   -1.08   0.000   0.200   0.000    0.00
  15.050   14.10   13.22    0.80   0.000   0.200   0.000    0.00
  15.100   14.68   14.48    1.57   0.000   0.200   0.000    0.00
  15.150   16.25   12.05    2.40   0.000   0.200   0.000    0.00
  15.200   14.70   11.87    2.49   0.000   0.200   0.000    0.00
  15.250   14.47   10.75    2.09   0.000   0.200   0.000    0.00
  15.300   14.33   10.81    0.96   0.000   0.200   0.000    0.00
  15.350   14.76   10.53    0.51   0.000   0.200   0.000    0.00
  15.400   14.47   10.32   -0.27   0.000   0.200   0.000    0.00
  15.450   14.76   12.88   -0.29   0.000   0.200   0.000    0.00
  15.500   15.11   15.62    0.95   0.000   0.200   0.000    0.00
  15.550   14.79   15.41    0.46   0.000   0.200   0.000    0.00
  15.600   14.82    9.96   -0.87   0.000   0.200   0.000    0.00
  15.650   15.40    8.02    0.16   0.000   0.200   0.000    0.00
  15.700   16.26    9.28    0.27   0.000   0.200   0.000    0.00
  15.750   17.18    7.73   -0.44   0.000   0.200   0.000    0.00
  15.800   16.99    0.84   -0.81   0.000   0.200   0.000    0.00
  15.850   17.64    2.98   -0.11   0.000   0.200   0.000    0.00
  15.900   18.30    2.96    0.14   0.000   0.200   0.000    0.00
  15.950   19.26   -0.13    0.53   0.000   0.200   0.000    0.00
  16.000   18.12    0.85   -0.18   0.000   0.200   0.000    0.00
  16.050   18.48   -0.33   -0.07   0.000   0.200   0.000    0.00
  16.100   19.04   -6.26   -1.01   0.000   0.200   0.000    0.00
  16.150   20.52   -5.77   -0.57   0.000   0.200   0.000    0.00
  16.200   20.92  -11.15   -0.27   0.000   0.200   0.000    0.00
  16.250   19.29   -9.63    1.54   0.000   0.200   0.000    0.00
  16.300   18.25   -5.20    1.21   0.000   0.200   0.000    0.00
  16.350   18.32   -0.67   -0.26   0.000   0.200   0.000    0.00
  16.400   19.63   -1.24   -0.72   0.000   0.200   0.000    0.00
  16.450   19.13   -6.88    0.34   0.000   0.200   0.000    0.00
  16.500   19.27   -4.55   -0.44   0.000   0.200   0.000    0.00
  16.550   18.51   -2.28   -1.46   0.000   0.200   0.000    0.00
  16.600   18.69    0.61   -0.55   0.000   0.200   0.000    0.00
  16.650   19.61    0.11   -0.37   0.000   0.200   0.000    0.00
  16.700   19.22   -0.06   -1.04   0.000   0.200   0.000    0.00
  16.750   19.80    0.03   -1.81   0.000   0.200   0.000    0.00
  16.800   20.03    1.96   -1.05   0.000   0.200   0.000    0.00
  16.850   18.43    2.94    0.20   0.000   0.200   0.000    0.00
  16.900   17.94    1.04    1.08   0.000   0.200   0.000    0.00
  16.950   17.39    2.96   -0.64   0.000   0.200   0.000    0.00
  17.000   17.50   -0.28   -2.09   0.000   0.200   0.000    0.00
  17.050   17.76    5.18   -1.75   0.000   0.200   0.000    0.00
  17.100   17.66    1.37   -1.01   0.000   0.200   0.000    0.00
  17.150   17.55   -1.74   -1.07   0.000   0.200   0.000    0.00
  17.200   17.71   -0.64   -1.43   0.000   0.200   0.000    0.00
  17.250   17.89   -3.67   -1.52   0.000   0.200   0.000    0.00
  17.300   17.19   -6.81   -0.30   0.000   0.200   0.000    0.00
  17.350   17.37   -6.90    0.02   0.000   0.200   0.000    0.00
  17.400   16.83   -6.05    0.32   0.000   0.200   0.000    0.00
  17.450   17.48   -6.50    0.35   0.000   0.200   0.000    0.00
  17.500   17.06   -8.30    0.49   0.000   0.200   0.000    0.00
  17.550   16.05   -7.08    0.72   0.000   0.200   0.000    0.00
  17.600   16.67   -5.78   -0.17   0.000   0.200   0.000    0.00
  17.650   16.82   -7.75    0.73   0.000   0.200   0.000    0.00
  17.700   17.26   -6.90    0.32   0.000   0.200   0.000    0.00
  17.750   17.52   -8.73    0.31   0.000   0.200   0.000    0.00
  17.800   17.57  -12.00    0.01   0.000   0.200   0.000    0.00
  17.850   16.69  -16.18    0.35   0.000   0.200   0.000    0.00
  17.900   16.50  -14.87   -0.58   0.000   0.200   0.000    0.00
  17.950   15.85  -11.61    0.62   0.000   0.200   0.000    0.00
  18.000   16.05  -11.39    0.20   0.000   0.200   0.000    0.00
  18.050   15.50  -12.95    0.79   0.000   0.200   0.000    0.00
  18.100   14.61   -9.45    0.78   0.000   0.200   0.000    0.00
  18.150   13.78   -7.84   -0.57   0.000   0.200   0.000    0.00
  18.200   14.32   -9.66   -0.77   0.000   0.200   0.000    0.00
  18.250   14.84   -3.26   -1.65   0.000   0.200   0.000    0.00
  18.300   14.65   -5.51   -1.65   0.000   0.200   0.000    0.00
  18.350   15.70   -2.43   -2.48   0.000   0.200   0.000    0.00
  18.400   15.31   -1.56   -2.09   0.000   0.200   0.000    0.00
  18.450   15.38    1.74   -1.81   0.000   0.200   0.000    0.00
  18.500   15.40   -1.21   -1.12   0.000   0.200   0.000    0.00
  18.550   15.59    3.26   -1.06   0.000   0.200   0.000    0.00
  18.600   14.66   -0.03    0.45   0.000   0.200   0.000    0.00
  18.650   15.11   -5.44    0.71   0.000   0.200   0.000    0.00
  18.700   15.78   -5.21   -0.48   0.000   0.200   0.000    0.00
  18.750   16.19   -7.63    0.69   0.000   0.200   0.000    0.00
  18.800   15.29   -7.23    1.95   0.000   0.200   0.000    0.00
  18.850   15.05  -10.79    1.96   0.000   0.200   0.000    0.00
  18.900   16.01  -10.49    1.06   0.000   0.200   0.000    0.00
  18.950   16.64   -9.18    0.49   0.000   0.200   0.000    0.00
  19.000   17.00   -7.76    0.49   0.000   0.200   0.000    0.00
  19.050   16.48   -9.64   -0.01   0.000   0.200   0.000    0.00
  19.100   15.91   -9.39    0.17   0.000   0.200   0.000    0.00
  19.150   16.21   -4.47    0.03   0.000   0.200   0.000    0.00
  19.200   15.02  -11.65    1.24   0.000   0.200   0.000    0.00
  19.250   15.20   -9.14    0.92   0.000   0.200   0.000    0.00
  19.300   15.59   -8.16    0.58   0.000   0.200   0.000    0.00
  19.350   16.21   -6.47    0.56   0.000   0.200   0.000    0.00
  19.400   16.49   -5.72    1.53   0.000   0.200   0.000    0.00
  19.450   16.24   -6.06    2.25   0.000   0.200   0.000    0.00
  19.500   15.67   -4.93    1.02   0.000   0.200   0.000    0.00
  19.550   15.74   -5.01   -0.26   0.000   0.200   0.000    0.00
  19.600   15.33   -3.79   -0.14   0.000   0.200   0.000    0.00
  19.650   14.76   -2.34    0.07   0.000   0.200   0.000    0.00
  19.700   15.37   -6.18    0.86   0.000   0.200   0.000    0.00
  19.750   14.61   -5.67   -0.07   0.000   0.200   0.000    0.00
  19.800   15.11   -9.46   -0.15   0.000   0.200   0.000    0.00
  19.850   14.69   -8.05   -0.14   0.000   0.200   0.000    0.00
  19.900   14.48   -7.05    0.33   0.000   0.200   0.000    0.00
  19.950   14.29  -13.02    0.16   0.000   0.200   0.000    0.00
  20.000   14.34  -13.39    0.46   0.000   0.200   0.000    0.00
  20.050   12.95  -16.34   -0.59   0.000   0.200   0.000    0.00
  20.100   12.37  -17.51   -1.39   0.000   0.200   0.000    0.00
  20.150   12.78  -20.26   -1.05   0.000   0.200   0.000    0.00
  20.200   13.75  -17.20   -1.95   0.000   0.200   0.000    0.00
  20.250   14.04  -18.64   -1.38   0.000   0.200   0.000    0.00
  20.300   14.13  -18.76   -1.16   0.000   0.200   0.000    0.00
  20.350   14.76  -18.79   -1.98   0.000   0.200   0.000    0.00
  20.400   15.17  -17.24   -1.42   0.000   0.200   0.000    0.00
  20.450   14.99  -11.26    0.14   0.000   0.200   0.000    0.00
  20.500   15.31  -10.72   -1.74   0.000   0.200   0.000    0.00
  20.550   15.66  -11.48   -0.91   0.000   0.200   0.000    0.00
  20.600   17.00  -12.81   -1.77   0.000   0.200   0.000    0.00
  20.650   15.59  -13.24   -1.61   0.000   0.200   0.000    0.00
  20.700   15.39  -14.16   -0.32   0.000   0.200   0.000    0.00
  20.750   14.95   -9.49   -0.84   0.000   0.200   0.000    0.00
  20.800   15.66  -10.40   -1.42   0.000   0.200   0.000    0.00
  20.850   15.25  -10.69   -1.65   0.000   0.200   0.000    0.00
  20.900   16.32  -13.02   -2.16   0.000   0.200   0.000    0.00
  20.950   14.61  -11.53   -3.09   0.000   0.200   0.000    0.00
  21.000   14.07   -8.93   -2.00   0.000   0.200   0.000    0.00
  21.050   13.13   -9.65   -1.33   0.000   0.200   0.000    0.00
  21.100   13.84   -9.07   -0.68   0.000   0.200   0.000    0.00
  21.150   14.33  -11.60   -0.57   0.000   0.200   0.000    0.00
  21.200   13.82  -16.76   -1.49   0.000   0.200   0.000    0.00
  21.250   14.82  -20.18   -0.42   0.000   0.200   0.000    0.00
  21.300   14.63  -16.87   -1.12   0.000   0.200   0.000    0.00
  21.350   15.66  -14.44   -0.31   0.000   0.200   0.000    0.00
  21.400   16.33  -10.68   -0.54   0.000   0.200   0.000    0.00
  21.450   15.62   -8.09   -1.37   0.000   0.200   0.000    0.00
  21.500   16.28   -7.69   -2.31   0.000   0.200   0.000    0.00
  21.550   17.45  -11.56   -1.77   0.000   0.200   0.000    0.00
  21.600   16.97  -10.08   -1.60   0.000   0.200   0.000    0.00
  21.650   17.52   -3.76   -2.00   0.000   0.200   0.000    0.00
  21.700   16.64   -2.74   -1.83   0.000   0.200   0.000    0.00
  21.750   14.97   -3.01   -0.24   0.000   0.200   0.000    0.00
  21.800   14.98   -0.33    0.93   0.000   0.200   0.000    0.00
  21.850   16.34   -2.31    1.20   0.000   0.200   0.000    0.00
  21.900   16.57   -4.16    1.32   0.000   0.200   0.000    0.00
  21.950   15.44    0.89    0.92   0.000   0.200   0.000    0.00
  22.000   15.55    6.92    0.73   0.000   0.200   0.000    0.00
  22.050   16.16    2.13    0.51   0.000   0.200   0.000    0.00
  22.100   16.38   -1.71    0.41   0.000   0.200   0.000    0.00
  22.150   16.89   -1.96    1.03   0.000   0.200   0.000    0.00
  22.200   17.75   -1.24    0.03   0.000   0.200   0.000    0.00
  22.250   18.74    4.38    0.41   0.000   0.200   0.000    0.00
  22.300   18.26    3.02    1.20   0.000   0.200   0.000    0.00
  22.350   17.69    2.46    1.18   0.000   0.200   0.000    0.00