! This hub-height wind-speed file was generated by TurbSim (v1.06.00, 21-Sep-2012) on 16-Jun-2018 at 18:34:43.
!
! The requested statistics for this data were:
!    Mean Total Wind Speed =   15.000 m/s
!    Turbulence Intensity  =   22.430%
!
!   Time  HorSpd  WndDir  VerSpd  HorShr  VerShr  LnVShr  GstSpd
!  (sec)   (m/s)   (deg)   (m/s)     (-)     (-)     (-)   (m/s)
   0.000   17.08    6.44    1.95   0.000   0.200   0.000    0.00
   0.050   18.19    9.76    2.05   0.000   0.200   0.000    0.00
   0.100   18.34    9.98    1.03   0.000   0.200   0.000    0.00
   0.150   18.43    8.68    0.55   0.000   0.200   0.000    0.00
   0.200   17.93   11.04    0.35   0.000   0.200   0.000    0.00
   0.250   17.57   11.09    0.01   0.000   0.200   0.000    0.00
   0.300   17.35   13.92    0.92   0.000   0.200   0.000    0.00
   0.350   16.31   15.29    0.84   0.000   0.200   0.000    0.00
   0.400   17.40   13.26    1.13   0.000   0.200   0.000    0.00
   0.450   17.50   17.53    0.67   0.000   0.200   0.000    0.00
   0.500   17.64   16.27   -0.45   0.000   0.200   0.000    0.00
   0.550   17.39   12.62   -0.75   0.000   0.200   0.000    0.00
   0.600   17.72   11.24   -0.26   0.000   0.200   0.000    0.00
   0.650   17.68   11.53    0.06   0.000   0.200   0.000    0.00
   0.700   17.31   12.08    0.04   0.000   0.200   0.000    0.00
   0.750   17.51   11.70    0.22   0.000   0.200   0.000    0.00
   0.800   16.53   12.29   -0.62   0.000   0.200   0.000    0.00
   0.850   16.55    7.15   -0.05   0.000   0.200   0.000    0.00
   0.900   16.31   11.27   -0.38   0.000   0.200   0.000    0.00
   0.950   15.50   12.82    0.61   0.000   0.200   0.000    0.00
   1.000   15.54   11.85    1.11   0.000   0.200   0.000    0.00
   1.050   16.06    7.73    0.51   0.000   0.200   0.000    0.00
   1.100   16.99    6.87    0.98   0.000   0.200   0.000    0.00
   1.150   17.80   10.04    0.89   0.000   0.200   0.000    0.00
   1.200   17.43    9.05    1.32   0.000   0.200   0.000    0.00
   1.250   17.58    5.09    1.38   0.000   0.200   0.000    0.00
   1.300   18.04    4.33    1.34   0.000   0.200   0.000    0.00
   1.350   18.10    7.10    1.83   0.000   0.200   0.000    0.00
   1.400   19.51    5.71    1.12   0.000   0.200   0.000    0.00
   1.450   18.76    6.10    0.23   0.000   0.200   0.000    0.00
   1.500   18.39    5.81   -0.17   0.000   0.200   0.000    0.00
   1.550   18.87    6.62   -0.37   0.000   0.200   0.000    0.00
   1.600   18.91    5.67   -1.49   0.000   0.200   0.000    0.00
   1.650   19.22    6.56   -2.25   0.000   0.200   0.000    0.00
   1.700   19.70    4.66   -1.94   0.000   0.200   0.000    0.00
   1.750   18.89    5.50   -2.05   0.000   0.200   0.000    0.00
   1.800   19.80    5.61   -1.18   0.000   0.200   0.000    0.00
   1.850   20.22    5.57   -0.42   0.000   0.200   0.000    0.00
   1.900   19.87    2.93    0.13   0.000   0.200   0.000    0.00
   1.950   19.68    0.31   -0.12   0.000   0.200   0.000    0.00
   2.000   19.49   -1.81   -0.68   0.000   0.200   0.000    0.00
   2.050   19.29   -2.81   -0.75   0.000   0.200   0.000    0.00
   2.100   19.56   -3.34   -1.23   0.000   0.200   0.000    0.00
   2.150   19.88   -0.99   -1.06   0.000   0.200   0.000    0.00
   2.200   20.51   -0.29   -0.86   0.000   0.200   0.000    0.00
   2.250   20.34    2.23   -1.49   0.000   0.200   0.000    0.00
   2.300   19.44    8.51   -1.39   0.000   0.200   0.000    0.00
   2.350   20.46    4.06   -0.92   0.000   0.200   0.000    0.00
   2.400   21.22    4.76   -1.45   0.000   0.200   0.000    0.00
   2.450   21.71    6.17   -2.34   0.000   0.200   0.000    0.00
   2.500   21.40    7.29   -2.60   0.000   0.200   0.000    0.00
   2.550   21.29    7.08   -2.06   0.000   0.200   0.000    0.00
   2.600   21.49    4.31   -1.22   0.000   0.200   0.000    0.00
   2.650   21.66    5.31   -1.28   0.000   0.200   0.000    0.00
   2.700   22.70    5.20   -0.90   0.000   0.200   0.000    0.00
   2.750   23.17    2.78   -0.61   0.000   0.200   0.000    0.00
   2.800   22.89    1.26   -0.89   0.000   0.200   0.000    0.00
   2.850   22.01    1.52   -1.61   0.000   0.200   0.000    0.00
   2.900   21.80    3.13   -0.44   0.000   0.200   0.000    0.00
   2.950   22.46    1.75    0.16   0.000   0.200   0.000    0.00
   3.000   21.98    1.78    0.66   0.000   0.200   0.000    0.00
   3.050   21.33    0.47    0.60   0.000   0.200   0.000    0.00
   3.100   20.85    1.19    0.53   0.000   0.200   0.000    0.00
   3.150   20.24    3.36   -0.28   0.000   0.200   0.000    0.00
   3.200   19.63    3.01   -0.45   0.000   0.200   0.000    0.00
   3.250   19.41    4.44    0.00   0.000   0.200   0.000    0.00
   3.300   19.53    3.53   -1.18   0.000   0.200   0.000    0.00
   3.350   19.77    0.72   -1.62   0.000   0.200   0.000    0.00
   3.400   19.45    0.63   -2.16   0.000   0.200   0.000    0.00
   3.450   19.12    1.26   -2.03   0.000   0.200   0.000    0.00
   3.500   19.45    2.61   -1.41   0.000   0.200   0.000    0.00
   3.550   19.58    2.21   -1.69   0.000   0.200   0.000    0.00
   3.600   19.62   -0.55   -1.52   0.000   0.200   0.000    0.00
   3.650   19.67   -0.04   -1.62   0.000   0.200   0.000    0.00
   3.700   21.33    1.40   -2.10   0.000   0.200   0.000    0.00
   3.750   21.22    1.81   -0.87   0.000   0.200   0.000    0.00
   3.800   20.74    0.15   -0.06   0.000   0.200   0.000    0.00
   3.850   20.24   -0.63   -0.22   0.000   0.200   0.000    0.00
   3.900   19.78    4.87    0.14   0.000   0.200   0.000    0.00
   3.950   19.95    3.16    1.00   0.000   0.200   0.000    0.00
   4.000   19.34    3.33   -0.49   0.000   0.200   0.000    0.00
   4.050   19.68    5.73   -1.52   0.000   0.200   0.000    0.00
   4.100   19.41    6.31   -1.26   0.000   0.200   0.000    0.00
   4.150   19.92    6.33   -1.61   0.000   0.200   0.000    0.00
   4.200   19.50    4.89   -1.70   0.000   0.200   0.000    0.00
   4.250   19.39    7.05   -1.36   0.000   0.200   0.000    0.00
   4.300   19.17   10.15   -0.96   0.000   0.200   0.000    0.00
   4.350   19.82    8.58   -0.67   0.000   0.200   0.000    0.00
   4.400   19.84    8.59    0.40   0.000   0.200   0.000    0.00
   4.450   18.74   10.85    1.55   0.000   0.200   0.000    0.00
   4.500   17.90    9.28    1.89   0.000   0.200   0.000    0.00
   4.550   17.62    6.87    2.29   0.000   0.200   0.000    0.00
   4.600   17.65    6.87    2.77   0.000   0.200   0.000    0.00
   4.650   18.00    6.77    1.32   0.000   0.200   0.000    0.00
   4.700   17.62    7.54    1.62   0.000   0.200   0.000    0.00
   4.750   16.66   10.75    1.90   0.000   0.200   0.000    0.00
   4.800   17.35   13.52    1.82   0.000   0.200   0.000    0.00
   4.850   16.69   14.07    1.58   0.000   0.200   0.000    0.00
   4.900   16.67    9.39    0.92   0.000   0.200   0.000    0.00
   4.950   16.49    8.64    0.93   0.000   0.200   0.000    0.00
   5.000   16.21    8.93    1.54   0.000   0.200   0.000    0.00
   5.050   17.37    6.09    1.56   0.000   0.200   0.000    0.00
   5.100   17.06    2.36    1.10   0.000   0.200   0.000    0.00
   5.150   17.17    1.13    0.91   0.000   0.200   0.000    0.00
   5.200   18.23   -4.11    0.09   0.000   0.200   0.000    0.00
   5.250   18.17   -2.70    1.36   0.000   0.200   0.000    0.00
   5.300   17.52   -0.71    1.25   0.000   0.200   0.000    0.00
   5.350   18.59   -1.99    1.19   0.000   0.200   0.000    0.00
   5.400   17.18   -1.54    1.79   0.000   0.200   0.000    0.00
   5.450   16.85   -2.91    2.62   0.000   0.200   0.000    0.00
   5.500   17.44   -2.77    2.51   0.000   0.200   0.000    0.00
   5.550   17.85   -4.15    1.55   0.000   0.200   0.000    0.00
   5.600   18.24   -2.86    1.39   0.000   0.200   0.000    0.00
   5.650   18.95    0.76    1.46   0.000   0.200   0.000    0.00
   5.700   18.42    5.56    0.84   0.000   0.200   0.000    0.00
   5.750   18.84    4.01    0.38   0.000   0.200   0.000    0.00
   5.800   18.09    1.85    0.89   0.000   0.200   0.000    0.00
   5.850   17.86    4.33    1.04   0.000   0.200   0.000    0.00
   5.900   18.62    9.12    0.76   0.000   0.200   0.000    0.00
   5.950   17.71    9.22    1.07   0.000   0.200   0.000    0.00
   6.000   17.64    7.00    1.93   0.000   0.200   0.000    0.00
   6.050   17.56    6.98    1.41   0.000   0.200   0.000    0.00
   6.100   17.72    8.20    0.70   0.000   0.200   0.000    0.00
   6.150   17.74    8.59    0.48   0.000   0.200   0.000    0.00
   6.200   17.23    8.65    0.01   0.000   0.200   0.000    0.00
   6.250   17.15    7.76    0.14   0.000   0.200   0.000    0.00
   6.300   17.69    6.63   -0.56   0.000   0.200   0.000    0.00
   6.350   16.18    5.49   -0.43   0.000   0.200   0.000    0.00
   6.400   16.52    2.96   -0.52   0.000   0.200   0.000    0.00
   6.450   16.82    2.50    0.00   0.000   0.200   0.000    0.00
   6.500   16.08    5.43   -0.55   0.000   0.200   0.000    0.00
   6.550   15.72    7.80   -0.94   0.000   0.200   0.000    0.00
   6.600   16.58   10.91    0.03   0.000   0.200   0.000    0.00
   6.650   17.70    8.57    0.28   0.000   0.200   0.000    0.00
   6.700   17.64   10.33    0.34   0.000   0.200   0.000    0.00
   6.750   18.32   12.24    0.05   0.000   0.200   0.000    0.00
   6.800   17.85   13.39    0.20   0.000   0.200   0.000    0.00
   6.850   18.31   13.55    0.75   0.000   0.200   0.000    0.00
   6.900   18.25   13.15    0.86   0.000   0.200   0.000    0.00
   6.950   17.67   11.11    0.81   0.000   0.200   0.000    0.00
   7.000   17.58    9.94    0.28   0.000   0.200   0.000    0.00
   7.050   17.29   10.95    0.13   0.000   0.200   0.000    0.00
   7.100   17.51   10.89    0.85   0.000   0.200   0.000    0.00
   7.150   17.02   10.98    0.19   0.000   0.200   0.000    0.00
   7.200   16.96   10.06   -0.40   0.000   0.200   0.000    0.00
   7.250   17.25   12.82   -0.86   0.000   0.200   0.000    0.00
   7.300   16.78   14.36   -1.36   0.000   0.200   0.000    0.00
   7.350   16.45   15.35   -2.10   0.000   0.200   0.000    0.00
   7.400   16.47   15.15   -1.68   0.000   0.200   0.000    0.00
   7.450   17.38   10.06   -1.19   0.000   0.200   0.000    0.00
   7.500   18.03    8.08   -0.75   0.000   0.200   0.000    0.00
   7.550   17.34    5.85   -1.16   0.000   0.200   0.000    0.00
   7.600   17.17    6.76    0.07   0.000   0.200   0.000    0.00
   7.650   17.16    8.94   -0.19   0.000   0.200   0.000    0.00
   7.700   16.09   11.70   -0.75   0.000   0.200   0.000    0.00
   7.750   16.18   12.25   -0.14   0.000   0.200   0.000    0.00
   7.800   15.99   10.81    0.08   0.000   0.200   0.000    0.00
   7.850   16.62    8.12    0.11   0.000   0.200   0.000    0.00
   7.900   16.37   10.95   -0.23   0.000   0.200   0.000    0.00
   7.950   16.17    9.98   -0.85   0.000   0.200   0.000    0.00
   8.000   16.49    8.36   -1.39   0.000   0.200   0.000    0.00
   8.050   16.14    6.29   -0.92   0.000   0.200   0.000    0.00
   8.100   16.83    7.36   -0.79   0.000   0.200   0.000    0.00
   8.150   17.05    6.36   -0.28   0.000   0.200   0.000    0.00
   8.200   17.26    6.12    0.42   0.000   0.200   0.000    0.00
   8.250   17.09    6.88    0.07   0.000   0.200   0.000    0.00
   8.300   16.67    5.12   -0.02   0.000   0.200   0.000    0.00
   8.350   16.79    4.66    0.32   0.000   0.200   0.000    0.00
   8.400   16.62    6.90   -0.03   0.000   0.200   0.000    0.00
   8.450   16.77    3.70    0.10   0.000   0.200   0.000    0.00
   8.500   16.35    4.00   -0.09   0.000   0.200   0.000    0.00
   8.550   16.48    4.76    0.25   0.000   0.200   0.000    0.00
   8.600   17.18    7.05    0.36   0.000   0.200   0.000    0.00
   8.650   17.71    7.92    0.12   0.000   0.200   0.000    0.00
   8.700   17.65   10.37    1.05   0.000   0.200   0.000    0.00
   8.750   17.31    6.93    1.43   0.000   0.200   0.000    0.00
   8.800   17.23    2.12    2.53   0.000   0.200   0.000    0.00
   8.850   17.22    2.62    2.15   0.000   0.200   0.000    0.00
   8.900   16.61    3.50    1.12   0.000   0.200   0.000    0.00
   8.950   16.42    7.14    0.49   0.000   0.200   0.000    0.00
   9.000   16.27    8.89    1.24   0.000   0.200   0.000    0.00
   9.050   15.91    5.68    1.57   0.000   0.200   0.000    0.00
   9.100   15.55    4.95    2.17   0.000   0.200   0.000    0.00
   9.150   15.73    8.94    0.40   0.000   0.200   0.000    0.00
   9.200   15.68   10.08    1.63   0.000   0.200   0.000    0.00
   9.250   15.76   11.13    1.69   0.000   0.200   0.000    0.00
   9.300   16.01   11.71    1.27   0.000   0.200   0.000    0.00
   9.350   15.48    5.53    1.15   0.000   0.200   0.000    0.00
   9.400   15.67    3.09    1.59   0.000   0.200   0.000    0.00
   9.450   16.07    6.56    1.29   0.000   0.200   0.000    0.00
   9.500   15.90    3.29    0.24   0.000   0.200   0.000    0.00
   9.550   15.45    1.33   -1.01   0.000   0.200   0.000    0.00
   9.600   15.36    5.40   -1.90   0.000   0.200   0.000    0.00
   9.650   14.82    5.15   -0.40   0.000   0.200   0.000    0.00
   9.700   15.17    3.07    0.02   0.000   0.200   0.000    0.00
   9.750   15.24    3.03   -0.04   0.000   0.200   0.000    0.00
   9.800   16.49   -0.32   -0.20   0.000   0.200   0.000    0.00
   9.850   15.06    0.38    0.45   0.000   0.200   0.000    0.00
   9.900   14.65    1.67   -0.02   0.000   0.200   0.000    0.00
   9.950   14.90    0.88   -0.19   0.000   0.200   0.000    0.00
  10.000   15.37   -0.09   -0.79   0.000   0.200   0.000    0.00
  10.050   15.41    2.30   -0.49   0.000   0.200   0.000    0.00
  10.100   15.76    5.42    0.30   0.000   0.200   0.000    0.00
  10.150   15.37    8.75    0.10   0.000   0.200   0.000    0.00
  10.200   15.78    9.64   -0.16   0.000   0.200   0.000    0.00
  10.250   16.64   11.67   -0.36   0.000   0.200   0.000    0.00
  10.300   16.44   10.65   -0.64   0.000   0.200   0.000    0.00
  10.350   17.58   12.85   -0.40   0.000   0.200   0.000    0.00
  10.400   17.32   13.17    0.31   0.000   0.200   0.000    0.00
  10.450   18.26   10.85    0.29   0.000   0.200   0.000    0.00
  10.500   17.52    9.92   -0.39   0.000   0.200   0.000    0.00
  10.550   17.88   10.00    0.28   0.000   0.200   0.000    0.00
  10.600   18.31    8.84    0.40   0.000   0.200   0.000    0.00
  10.650   17.36    8.62    0.54   0.000   0.200   0.000    0.00
  10.700   17.10    8.34   -0.45   0.000   0.200   0.000    0.00
  10.750   17.08    9.18   -0.07   0.000   0.200   0.000    0.00
  10.800   15.56   11.68   -0.07   0.000   0.200   0.000    0.00
  10.850   15.71   13.64   -0.09   0.000   0.200   0.000    0.00
  10.900   16.03   10.12    0.16   0.000   0.200   0.000    0.00
  10.950   15.82   10.29    0.62   0.000   0.200   0.000    0.00
  11.000   16.45   10.06    0.18   0.000   0.200   0.000    0.00
  11.050   16.94   11.83    1.28   0.000   0.200   0.000    0.00
  11.100   16.11   12.53    1.06   0.000   0.200   0.000    0.00
  11.150   16.29   12.37    1.07   0.000   0.200   0.000    0.00
  11.200   16.33   12.89    1.51   0.000   0.200   0.000    0.00
  11.250   16.23   11.41    1.55   0.000   0.200   0.000    0.00
  11.300   16.71   12.70    2.08   0.000   0.200   0.000    0.00
  11.350   15.75   11.92    2.15   0.000   0.200   0.000    0.00
  11.400   15.65   13.35    2.65   0.000   0.200   0.000    0.00
  11.450   15.45   17.06    2.31   0.000   0.200   0.000    0.00
  11.500   15.62   16.69    1.88   0.000   0.200   0.000    0.00
  11.550   15.39   16.22    1.44   0.000   0.200   0.000    0.00
  11.600   16.13   15.03    2.35   0.000   0.200   0.000    0.00
  11.650   15.91   13.16    3.10   0.000   0.200   0.000    0.00
  11.700   15.84   11.37    2.90   0.000   0.200   0.000    0.00
  11.750   16.10   13.09    2.72   0.000   0.200   0.000    0.00
  11.800   15.57   10.81    3.42   0.000   0.200   0.000    0.00
  11.850   15.28   10.25    4.13   0.000   0.200   0.000    0.00
  11.900   16.33    8.19    3.61   0.000   0.200   0.000    0.00
  11.950   15.90    6.40    3.62   0.000   0.200   0.000    0.00
  12.000   16.17    5.33    3.26   0.000   0.200   0.000    0.00
  12.050   16.59    4.50    2.73   0.000   0.200   0.000    0.00
  12.100   16.96    5.16    2.36   0.000   0.200   0.000    0.00
  12.150   16.72    9.01    2.44   0.000   0.200   0.000    0.00
  12.200   15.49    8.18    2.10   0.000   0.200   0.000    0.00
  12.250   14.79    5.25    1.35   0.000   0.200   0.000    0.00
  12.300   14.95    3.46    0.60   0.000   0.200   0.000    0.00
  12.350   14.27   -0.73    1.16   0.000   0.200   0.000    0.00
  12.400   13.17   -1.71    0.75   0.000   0.200   0.000    0.00
  12.450   12.53    1.49    1.10   0.000   0.200   0.000    0.00
  12.500   12.95   -0.17    0.44   0.000   0.200   0.000    0.00
  12.550   12.58   -3.97    0.09   0.000   0.200   0.000    0.00
  12.600   13.20   -4.88   -0.14   0.000   0.200   0.000    0.00
  12.650   13.80   -2.73   -0.66   0.000   0.200   0.000    0.00
  12.700   13.34   -4.41   -0.96   0.000   0.200   0.000    0.00
  12.750   13.21   -2.39   -2.00   0.000   0.200   0.000    0.00
  12.800   13.66   -0.36   -1.92   0.000   0.200   0.000    0.00
  12.850   14.66    1.18   -1.29   0.000   0.200   0.000    0.00
  12.900   14.67    0.69   -0.23   0.000   0.200   0.000    0.00
  12.950   14.49    0.61   -0.58   0.000   0.200   0.000    0.00
  13.000   13.30    2.12   -1.11   0.000   0.200   0.000    0.00
  13.050   13.99    4.63    0.21   0.000   0.200   0.000    0.00
  13.100   14.96    8.52    1.01   0.000   0.200   0.000    0.00
  13.150   14.33    9.00   -0.16   0.000   0.200   0.000    0.00
  13.200   13.99    7.54    0.06   0.000   0.200   0.000    0.00
  13.250   14.39    5.22   -1.04   0.000   0.200   0.000    0.00
  13.300   14.28    2.91   -1.34   0.000   0.200   0.000    0.00
  13.350   13.93    2.94   -0.51   0.000   0.200   0.000    0.00
  13.400   13.66    4.43   -1.71   0.000   0.200   0.000    0.00
  13.450   14.45    5.32   -2.11   0.000   0.200   0.000    0.00
  13.500   14.37    5.59   -2.00   0.000   0.200   0.000    0.00
  13.550   14.87    4.59   -2.18   0.000   0.200   0.000    0.00
  13.600   15.03    4.38   -1.51   0.000   0.200   0.000    0.00
  13.650   15.28    4.54   -0.34   0.000   0.200   0.000    0.00
  13.700   14.37    5.29   -0.22   0.000   0.200   0.000    0.00
  13.750   14.00    6.19   -0.35   0.000   0.200   0.000    0.00
  13.800   14.07    6.83   -1.01   0.000   0.200   0.000    0.00
  13.850   14.42    9.39   -0.47   0.000   0.200   0.000    0.00
  13.900   14.07    8.72   -1.03   0.000   0.200   0.000    0.00
  13.950   13.53    8.68   -0.60   0.000   0.200   0.000    0.00
  14.000   14.00   11.43   -0.87   0.000   0.200   0.000    0.00
  14.050   14.86   11.00    0.40   0.000   0.200   0.000    0.00
  14.100   15.44   10.99    0.13   0.000   0.200   0.000    0.00
  14.150   15.10    9.79   -0.18   0.000   0.200   0.000    0.00
  14.200   15.00    8.41   -0.68   0.000   0.200   0.000    0.00
  14.250   15.30    3.96   -0.88   0.000   0.200   0.000    0.00
  14.300   15.72    8.79   -1.36   0.000   0.200   0.000    0.00
  14.350   15.36   14.29   -0.64   0.000   0.200   0.000    0.00
  14.400   15.32   10.14   -0.41   0.000   0.200   0.000    0.00
  14.450   15.47    6.99   -0.06   0.000   0.200   0.000    0.00
  14.500   15.54    8.21   -0.06   0.000   0.200   0.000    0.00
  14.550   15.36   13.35    0.02   0.000   0.200   0.000    0.00
  14.600   16.71   16.95   -0.06   0.000   0.200   0.000    0.00
  14.650   16.34   10.32   -0.98   0.000   0.200   0.000    0.00
  14.700   15.99    5.01   -0.77   0.000   0.200   0.000    0.00
  14.750   16.43    6.67   -0.30   0.000   0.200   0.000    0.00
  14.800   16.81    3.66   -0.92   0.000   0.200   0.000    0.00
  14.850   17.14    4.63   -1.25   0.000   0.200   0.000    0.00
  14.900   17.48    4.78    0.11   0.000   0.200   0.000    0.00
  14.950   17.73    1.79   -0.38   0.000   0.200   0.000    0.00
  15.000   18.12    6.44   -0.97   0.000   0.200   0.000    0.00
  15.050   18.65    6.16   -1.05   0.000   0.200   0.000    0.00
  15.100   18.79    8.24   -0.03   0.000   0.200   0.000    0.00
  15.150   18.29    8.00    0.16   0.000   0.200   0.000    0.00
  15.200   17.77    6.07   -0.37   0.000   0.200   0.000    0.00
  15.250   17.94    5.60   -1.34   0.000   0.200   0.000    0.00
  15.300   18.51    6.79   -1.56   0.000   0.200   0.000    0.00
  15.350   18.27    4.66   -1.97   0.000   0.200   0.000    0.00
  15.400   17.67    1.32   -2.97   0.000   0.200   0.000    0.00
  15.450   16.88    2.17   -2.48   0.000   0.200   0.000    0.00
  15.500   16.95    1.00   -3.13   0.000   0.200   0.000    0.00
  15.550   17.57    4.78   -3.19   0.000   0.200   0.000    0.00
  15.600   16.82    6.50   -2.22   0.000   0.200   0.000    0.00
  15.650   17.41    2.45   -1.24   0.000   0.200   0.000    0.00
  15.700   17.42    1.77   -0.52   0.000   0.200   0.000    0.00
  15.750   16.40    1.38   -0.60   0.000   0.200   0.000    0.00
  15.800   15.98    2.55   -1.28   0.000   0.200   0.000    0.00
  15.850   16.21    2.14   -1.36   0.000   0.200   0.000    0.00
  15.900   15.75    3.25   -1.11   0.000   0.200   0.000    0.00
  15.950   15.59    1.84    0.25   0.000   0.200   0.000    0.00
  16.000   15.18    2.85    0.27   0.000   0.200   0.000    0.00
  16.050   15.24    2.25   -0.04   0.000   0.200   0.000    0.00
  16.100   16.46    0.56   -0.56   0.000   0.200   0.000    0.00
  16.150   16.37    0.26   -0.27   0.000   0.200   0.000    0.00
  16.200   16.44    1.94    0.21   0.000   0.200   0.000    0.00
  16.250   16.02    2.02    0.09   0.000   0.200   0.000    0.00
  16.300   16.57    2.34    0.90   0.000   0.200   0.000    0.00
  16.350   16.40    4.21    0.47   0.000   0.200   0.000    0.00
  16.400   16.22    4.22   -0.16   0.000   0.200   0.000    0.00
  16.450   16.25    5.79    0.12   0.000   0.200   0.000    0.00
  16.500   16.83    7.69    0.51   0.000   0.200   0.000    0.00
  16.550   16.29    6.43    1.14   0.000   0.200   0.000    0.00
  16.600   15.51    7.50    0.79   0.000   0.200   0.000    0.00
  16.650   15.34    5.99   -0.68   0.000   0.200   0.000    0.00
  16.700   14.89    6.21   -1.59   0.000   0.200   0.000    0.00
  16.750   14.90    4.29   -1.41   0.000   0.200   0.000    0.00
  16.800   16.45    5.61   -0.74   0.000   0.200   0.000    0.00
  16.850   15.19    5.87   -1.01   0.000   0.200   0.000    0.00
  16.900   15.13    0.43   -1.42   0.000   0.200   0.000    0.00
  16.950   15.69   -3.73   -1.22   0.000   0.200   0.000    0.00
  17.000   15.43   -2.16   -0.36   0.000   0.200   0.000    0.00
  17.050   15.26    2.57   -0.67   0.000   0.200   0.000    0.00
  17.100   14.87    1.24   -1.69   0.000   0.200   0.000    0.00
  17.150   14.89    1.85   -1.10   0.000   0.200   0.000    0.00
  17.200   15.64    1.85   -0.59   0.000   0.200   0.000    0.00
  17.250   16.18    3.33   -0.17   0.000   0.200   0.000    0.00
  17.300   16.68   -1.77   -1.19   0.000   0.200   0.000    0.00
  17.350   16.07    0.77   -1.37   0.000   0.200   0.000    0.00
  17.400   15.68    1.49    0.20   0.000   0.200   0.000    0.00
  17.450   15.81    0.87    0.13   0.000   0.200   0.000    0.00
  17.500   15.22    5.87   -0.50   0.000   0.200   0.000    0.00
  17.550   16.02    8.08   -0.51   0.000   0.200   0.000    0.00
  17.600   17.09    3.90   -1.10   0.000   0.200   0.000    0.00
  17.650   17.67    5.37   -1.11   0.000   0.200   0.000    0.00
  17.700   18.10    3.37   -0.74   0.000   0.200   0.000    0.00
  17.750   17.53    1.89   -1.38   0.000   0.200   0.000    0.00
  17.800   17.50    5.57   -1.69   0.000   0.200   0.000    0.00
  17.850   17.53    7.07   -0.82   0.000   0.200   0.000    0.00
  17.900   17.08    7.35   -1.20   0.000   0.200   0.000    0.00
  17.950   16.89    7.27   -0.56   0.000   0.200   0.000    0.00
  18.000   17.20    6.43   -0.92   0.000   0.200   0.000    0.00
  18.050   16.02    6.64   -1.35   0.000   0.200   0.000    0.00
  18.100   15.31    6.55   -0.47   0.000   0.200   0.000    0.00
  18.150   15.21    6.22   -0.40   0.000   0.200   0.000    0.00
  18.200   14.41    5.62   -0.56   0.000   0.200   0.000    0.00
  18.250   14.24    4.91   -0.83   0.000   0.200   0.000    0.00
  18.300   14.29    5.84   -0.65   0.000   0.200   0.000    0.00
  18.350   14.65   10.28   -0.68   0.000   0.200   0.000    0.00
  18.400   14.62    7.61   -0.09   0.000   0.200   0.000    0.00
  18.450   15.14    8.56    0.12   0.000   0.200   0.000    0.00
  18.500   14.85    2.23    0.26   0.000   0.200   0.000    0.00
  18.550   15.21   -0.87    0.29   0.000   0.200   0.000    0.00
  18.600   15.21    2.06    0.15   0.000   0.200   0.000    0.00
  18.650   15.11    0.30    0.33   0.000   0.200   0.000    0.00
  18.700   15.27   -1.49   -0.44   0.000   0.200   0.000    0.00
  18.750   14.45    1.75    0.21   0.000   0.200   0.000    0.00
  18.800   14.18   -3.54    0.92   0.000   0.200   0.000    0.00
  18.850   14.63   -2.54    0.03   0.000   0.200   0.000    0.00
  18.900   15.25    0.17   -0.53   0.000   0.200   0.000    0.00
  18.950   14.44    4.75    0.05   0.000   0.200   0.000    0.00
  19.000   14.22    7.33    0.06   0.000   0.200   0.000    0.00
  19.050   13.63    3.72   -0.14   0.000   0.200   0.000    0.00
  19.100   14.46    4.28   -0.70   0.000   0.200   0.000    0.00
  19.150   15.02    6.46   -0.65   0.000   0.200   0.000    0.00
  19.200   14.39    6.10   -0.35   0.000   0.200   0.000    0.00
  19.250   14.02    5.21    0.33   0.000   0.200   0.000    0.00
  19.300   14.35    8.01   -0.14   0.000   0.200   0.000    0.00
  19.350   13.81    4.44   -1.28   0.000   0.200   0.000    0.00
  19.400   13.25    0.19   -0.58   0.000   0.200   0.000    0.00
  19.450   12.86    2.06   -0.18   0.000   0.200   0.000    0.00
  19.500   12.06    1.53   -0.67   0.000   0.200   0.000    0.00
  19.550   12.31   -0.31   -1.01   0.000   0.200   0.000    0.00
  19.600   13.12    1.91   -1.57   0.000   0.200   0.000    0.00
  19.650   14.26    4.26   -2.61   0.000   0.200   0.000    0.00
  19.700   14.23    8.83   -1.71   0.000   0.200   0.000    0.00
  19.750   15.02    5.47   -1.29   0.000   0.200   0.000    0.00
  19.800   15.51    4.97   -0.80   0.000   0.200   0.000    0.00
  19.850   15.30    9.57   -0.06   0.000   0.200   0.000    0.00
  19.900   15.90    9.04    0.26   0.000   0.200   0.000    0.00
  19.950   15.99   11.32    0.12   0.000   0.200   0.000    0.00
  20.000   16.41    8.46    0.14   0.000   0.200   0.000    0.00
  20.050   15.45    2.85   -0.84   0.000   0.200   0.000    0.00
  20.100   15.64    3.06   -0.47   0.000   0.200   0.000    0.00
  20.150   16.20    0.87   -0.51   0.000   0.200   0.000    0.00
  20.200   16.64   -0.66   -1.54   0.000   0.200   0.000    0.00
  20.250   16.58    0.33   -1.59   0.000   0.200   0.000    0.00
  20.300   17.17    2.99   -1.83   0.000   0.200   0.000    0.00
  20.350   16.28    4.87   -1.20   0.000   0.200   0.000    0.00
  20.400   17.20    4.33   -0.98   0.000   0.200   0.000    0.00
  20.450   17.06    5.01   -1.10   0.000   0.200   0.000    0.00
  20.500   16.15    7.26   -1.47   0.000   0.200   0.000    0.00
  20.550   16.25    4.96   -1.15   0.000   0.200   0.000    0.00
  20.600   15.95    6.07   -1.44   0.000   0.200   0.000    0.00
  20.650   16.84    7.72   -1.95   0.000   0.200   0.000    0.00
  20.700   17.17    4.94   -2.49   0.000   0.200   0.000    0.00
  20.750   17.22    0.94   -2.91   0.000   0.200   0.000    0.00
  20.800   16.89    1.14   -2.56   0.000   0.200   0.000    0.00
  20.850   15.59    3.29   -2.54   0.000   0.200   0.000    0.00
  20.900   16.06    0.88   -3.90   0.000   0.200   0.000    0.00
  20.950   16.02   -2.34   -3.88   0.000   0.200   0.000    0.00
  21.000   16.59   -2.34   -3.08   0.000   0.200   0.000    0.00
  21.050   16.86   -2.29   -3.43   0.000   0.200   0.000    0.00
  21.100   16.79   -5.47   -2.35   0.000   0.200   0.000    0.00
  21.150   18.36   -5.08   -3.35   0.000   0.200   0.000    0.00
  21.200   18.03   -4.92   -2.41   0.000   0.200   0.000    0.00
  21.250   17.90   -5.40   -1.36   0.000   0.200   0.000    0.00
  21.300   18.00   -6.23   -1.99   0.000   0.200   0.000    0.00
  21.350   17.50   -5.70   -0.64   0.000   0.200   0.000    0.00
  21.400   17.48   -2.94   -0.67   0.000   0.200   0.000    0.00
  21.450   17.41   -2.43   -0.56   0.000   0.200   0.000    0.00
  21.500   15.81    1.44   -0.80   0.000   0.200   0.000    0.00
  21.550   15.25    1.00   -0.62   0.000   0.200   0.000    0.00
  21.600   16.46   -6.03   -1.22   0.000   0.200   0.000    0.00
  21.650   16.70   -8.55   -1.58   0.000   0.200   0.000    0.00
  21.700   15.91   -4.36   -1.86   0.000   0.200   0.000    0.00
  21.750   15.71   -0.70   -2.18   0.000   0.200   0.000    0.00
  21.800   15.99   -2.34   -0.94   0.000   0.200   0.000    0.00
  21.850   16.01   -2.38   -0.39   0.000   0.200   0.000    0.00
  21.900   15.81   -3.16   -0.47   0.000   0.200   0.000    0.00
  21.950   16.38    0.85    0.05   0.000   0.200   0.000    0.00
  22.000   16.83    2.27    0.83   0.000   0.200   0.000    0.00
  22.050   16.69    1.97   -0.74   0.000   0.200   0.000    0.00
  22.100   16.97    4.46    0.77   0.000   0.200   0.000    0.00
  22.150   18.47    4.50    1.45   0.000   0.200   0.000    0.00
  22.200   18.48    8.75    2.09   0.000   0.200   0.000    0.00
  22.250   18.57    5.74    1.10   0.000   0.200   0.000    0.00
  22.300   18.10    5.02    0.55   0.000   0.200   0.000    0.00
  22.350   18.17    5.97    0.77   0.000   0.200   0.000    0.00