! This hub-height wind-speed file was generated by TurbSim (v1.06.00, 21-Sep-2012) on 16-Jun-2018 at 18:36:49.
!
! The requested statistics for this data were:
!    Mean Total Wind Speed =    5.000 m/s
!    Turbulence Intensity  =   26.180%
!
!   Time  HorSpd  WndDir  VerSpd  HorShr  VerShr  LnVShr  GstSpd
!  (sec)   (m/s)   (deg)   (m/s)     (-)     (-)     (-)   (m/s)
   0.000    5.88   -2.36   -0.73   0.000   0.200   0.000    0.00
   0.050    5.85   -1.18   -0.48   0.000   0.200   0.000    0.00
   0.100    5.72   -2.67   -0.43   0.000   0.200   0.000    0.00
   0.150    5.72   -1.58   -0.56   0.000   0.200   0.000    0.00
   0.200    5.67   -2.15   -0.42   0.000   0.200   0.000    0.00
   0.250    5.72   -5.31   -0.66   0.000   0.200   0.000    0.00
   0.300    5.47   -4.63   -0.89   0.000   0.200   0.000    0.00
   0.350    5.51   -5.44   -0.91   0.000   0.200   0.000    0.00
   0.400    5.58   -4.83   -0.64   0.000   0.200   0.000    0.00
   0.450    5.20   -3.03   -0.43   0.000   0.200   0.000    0.00
   0.500    5.23   -4.45   -0.34   0.000   0.200   0.000    0.00
   0.550    5.35   -5.14   -0.56   0.000   0.200   0.000    0.00
   0.600    5.67   -4.44   -0.67   0.000   0.200   0.000    0.00
   0.650    5.48   -4.73   -0.71   0.000   0.200   0.000    0.00
   0.700    5.48   -7.79   -0.83   0.000   0.200   0.000    0.00
   0.750    5.50   -5.44   -0.69   0.000   0.200   0.000    0.00
   0.800    5.76   -4.53   -0.74   0.000   0.200   0.000    0.00
   0.850    5.77   -4.48   -0.86   0.000   0.200   0.000    0.00
   0.900    5.71   -1.79   -1.15   0.000   0.200   0.000    0.00
   0.950    5.47   -0.07   -1.10   0.000   0.200   0.000    0.00
   1.000    5.69   -1.86   -1.01   0.000   0.200   0.000    0.00
   1.050    5.67   -2.61   -1.33   0.000   0.200   0.000    0.00
   1.100    5.79    0.31   -1.13   0.000   0.200   0.000    0.00
   1.150    5.79   -1.28   -1.15   0.000   0.200   0.000    0.00
   1.200    5.91   -3.09   -1.05   0.000   0.200   0.000    0.00
   1.250    5.89   -1.07   -0.81   0.000   0.200   0.000    0.00
   1.300    5.94   -0.42   -0.63   0.000   0.200   0.000    0.00
   1.350    5.90    0.39   -0.77   0.000   0.200   0.000    0.00
   1.400    5.89   -2.58   -0.77   0.000   0.200   0.000    0.00
   1.450    5.94   -2.16   -0.68   0.000   0.200   0.000    0.00
   1.500    5.81   -2.06   -0.67   0.000   0.200   0.000    0.00
   1.550    5.92   -0.68   -0.58   0.000   0.200   0.000    0.00
   1.600    5.93   -1.80   -0.22   0.000   0.200   0.000    0.00
   1.650    5.90   -0.82   -0.32   0.000   0.200   0.000    0.00
   1.700    5.90   -2.97   -0.33   0.000   0.200   0.000    0.00
   1.750    5.95   -4.28   -0.39   0.000   0.200   0.000    0.00
   1.800    5.87   -4.27   -0.47   0.000   0.200   0.000    0.00
   1.850    5.74   -3.76   -0.69   0.000   0.200   0.000    0.00
   1.900    5.84   -2.15   -0.29   0.000   0.200   0.000    0.00
   1.950    5.67    1.31   -0.44   0.000   0.200   0.000    0.00
   2.000    5.82    0.43   -0.26   0.000   0.200   0.000    0.00
   2.050    5.81    0.48   -0.12   0.000   0.200   0.000    0.00
   2.100    5.68   -1.70   -0.22   0.000   0.200   0.000    0.00
   2.150    5.51   -3.96   -0.11   0.000   0.200   0.000    0.00
   2.200    5.46   -5.19   -0.05   0.000   0.200   0.000    0.00
   2.250    5.21   -7.40   -0.03   0.000   0.200   0.000    0.00
   2.300    5.15   -5.10   -0.33   0.000   0.200   0.000    0.00
   2.350    5.13   -4.69   -0.34   0.000   0.200   0.000    0.00
   2.400    5.26   -3.04   -0.50   0.000   0.200   0.000    0.00
   2.450    5.38   -3.30   -0.53   0.000   0.200   0.000    0.00
   2.500    5.18   -1.94   -0.62   0.000   0.200   0.000    0.00
   2.550    4.73   -1.69   -0.47   0.000   0.200   0.000    0.00
   2.600    4.75   -1.89    0.07   0.000   0.200   0.000    0.00
   2.650    4.64   -2.68   -0.03   0.000   0.200   0.000    0.00
   2.700    4.95   -3.05    0.12   0.000   0.200   0.000    0.00
   2.750    5.09   -5.21   -0.13   0.000   0.200   0.000    0.00
   2.800    5.02   -3.59   -0.15   0.000   0.200   0.000    0.00
   2.850    5.13   -3.57   -0.10   0.000   0.200   0.000    0.00
   2.900    4.91   -8.27   -0.05   0.000   0.200   0.000    0.00
   2.950    4.86  -10.32   -0.24   0.000   0.200   0.000    0.00
   3.000    5.00   -9.31   -0.45   0.000   0.200   0.000    0.00
   3.050    4.89   -7.42   -0.30   0.000   0.200   0.000    0.00
   3.100    4.88   -3.71   -0.31   0.000   0.200   0.000    0.00
   3.150    5.03   -3.41   -0.27   0.000   0.200   0.000    0.00
   3.200    5.08   -7.19   -0.23   0.000   0.200   0.000    0.00
   3.250    5.11   -7.29   -0.33   0.000   0.200   0.000    0.00
   3.300    4.91   -3.93   -0.12   0.000   0.200   0.000    0.00
   3.350    4.99   -5.63    0.11   0.000   0.200   0.000    0.00
   3.400    4.93   -5.20    0.19   0.000   0.200   0.000    0.00
   3.450    4.80   -4.36   -0.21   0.000   0.200   0.000    0.00
   3.500    4.69   -3.28   -0.26   0.000   0.200   0.000    0.00
   3.550    4.59   -5.60   -0.30   0.000   0.200   0.000    0.00
   3.600    4.38   -3.75   -0.09   0.000   0.200   0.000    0.00
   3.650    4.54   -2.36    0.16   0.000   0.200   0.000    0.00
   3.700    4.41   -1.66    0.38   0.000   0.200   0.000    0.00
   3.750    4.33   -3.15    0.19   0.000   0.200   0.000    0.00
   3.800    4.23   -3.55    0.38   0.000   0.200   0.000    0.00
   3.850    4.32   -1.94    0.48   0.000   0.200   0.000    0.00
   3.900    4.51   -3.28    0.61   0.000   0.200   0.000    0.00
   3.950    4.23   -5.44    0.68   0.000   0.200   0.000    0.00
   4.000    4.08   -4.92    0.61   0.000   0.200   0.000    0.00
   4.050    4.23   -2.89    0.60   0.000   0.200   0.000    0.00
   4.100    4.35   -2.47    0.46   0.000   0.200   0.000    0.00
   4.150    4.37    0.76    0.59   0.000   0.200   0.000    0.00
   4.200    4.15   -3.61    0.42   0.000   0.200   0.000    0.00
   4.250    4.19   -4.03    0.21   0.000   0.200   0.000    0.00
   4.300    4.13   -2.87    0.22   0.000   0.200   0.000    0.00
   4.350    4.11   -5.32    0.20   0.000   0.200   0.000    0.00
   4.400    4.04   -8.90    0.14   0.000   0.200   0.000    0.00
   4.450    4.22   -3.98    0.32   0.000   0.200   0.000    0.00
   4.500    4.29   -4.45    0.67   0.000   0.200   0.000    0.00
   4.550    4.03   -1.35    0.22   0.000   0.200   0.000    0.00
   4.600    4.15   -0.15    0.12   0.000   0.200   0.000    0.00
   4.650    4.20    0.74    0.25   0.000   0.200   0.000    0.00
   4.700    4.41   -0.65    0.27   0.000   0.200   0.000    0.00
   4.750    4.40   -4.76    0.06   0.000   0.200   0.000    0.00
   4.800    4.41   -4.17    0.03   0.000   0.200   0.000    0.00
   4.850    4.42   -0.18    0.20   0.000   0.200   0.000    0.00
   4.900    4.21   -1.48    0.31   0.000   0.200   0.000    0.00
   4.950    4.27   -4.79   -0.15   0.000   0.200   0.000    0.00
   5.000    4.46   -4.01   -0.04   0.000   0.200   0.000    0.00
   5.050    4.69   -1.03    0.27   0.000   0.200   0.000    0.00
   5.100    4.89    1.74    0.26   0.000   0.200   0.000    0.00
   5.150    4.98    2.39    0.40   0.000   0.200   0.000    0.00
   5.200    4.71   -0.22    0.44   0.000   0.200   0.000    0.00
   5.250    4.57    0.33    0.37   0.000   0.200   0.000    0.00
   5.300    4.69   -0.98    0.41   0.000   0.200   0.000    0.00
   5.350    4.80    0.38    0.22   0.000   0.200   0.000    0.00
   5.400    4.78    0.71    0.19   0.000   0.200   0.000    0.00
   5.450    4.87   -0.95    0.34   0.000   0.200   0.000    0.00
   5.500    4.92   -6.38    0.14   0.000   0.200   0.000    0.00
   5.550    4.92   -5.71    0.13   0.000   0.200   0.000    0.00
   5.600    4.76   -5.11    0.49   0.000   0.200   0.000    0.00
   5.650    5.02   -3.23    0.37   0.000   0.200   0.000    0.00
   5.700    4.89   -2.58    0.20   0.000   0.200   0.000    0.00
   5.750    5.01   -2.30    0.26   0.000   0.200   0.000    0.00
   5.800    5.15   -0.73    0.48   0.000   0.200   0.000    0.00
   5.850    5.12    0.15    0.71   0.000   0.200   0.000    0.00
   5.900    5.18   -0.34    0.95   0.000   0.200   0.000    0.00
   5.950    5.17   -2.45    0.45   0.000   0.200   0.000    0.00
   6.000    4.79   -2.67    0.22   0.000   0.200   0.000    0.00
   6.050    4.68   -3.32    0.22   0.000   0.200   0.000    0.00
   6.100    4.72   -8.40    0.17   0.000   0.200   0.000    0.00
   6.150    4.64  -12.15    0.53   0.000   0.200   0.000    0.00
   6.200    4.37   -8.19    0.45   0.000   0.200   0.000    0.00
   6.250    4.41  -12.38    0.41   0.000   0.200   0.000    0.00
   6.300    4.52  -10.23    0.29   0.000   0.200   0.000    0.00
   6.350    4.29  -10.42    0.20   0.000   0.200   0.000    0.00
   6.400    4.25   -8.27    0.06   0.000   0.200   0.000    0.00
   6.450    4.42   -7.16   -0.09   0.000   0.200   0.000    0.00
   6.500    4.47   -2.54    0.03   0.000   0.200   0.000    0.00
   6.550    4.80   -1.13    0.02   0.000   0.200   0.000    0.00
   6.600    4.78   -4.13   -0.07   0.000   0.200   0.000    0.00
   6.650    4.63   -2.65    0.41   0.000   0.200   0.000    0.00
   6.700    4.71   -4.45    0.35   0.000   0.200   0.000    0.00
   6.750    4.58   -7.45    0.21   0.000   0.200   0.000    0.00
   6.800    4.48   -6.74    0.06   0.000   0.200   0.000    0.00
   6.850    4.52   -5.91    0.07   0.000   0.200   0.000    0.00
   6.900    4.61   -5.22    0.04   0.000   0.200   0.000    0.00
   6.950    4.47   -4.23   -0.32   0.000   0.200   0.000    0.00
   7.000    4.61   -2.20   -0.31   0.000   0.200   0.000    0.00
   7.050    4.61   -3.96   -0.10   0.000   0.200   0.000    0.00
   7.100    4.75   -3.48   -0.10   0.000   0.200   0.000    0.00
   7.150    4.90   -3.14   -0.10   0.000   0.200   0.000    0.00
   7.200    4.77   -5.61   -0.06   0.000   0.200   0.000    0.00
   7.250    4.61   -6.12    0.13   0.000   0.200   0.000    0.00
   7.300    4.36   -9.11   -0.11   0.000   0.200   0.000    0.00
   7.350    4.38   -9.36    0.32   0.000   0.200   0.000    0.00
   7.400    4.35   -8.46    0.56   0.000   0.200   0.000    0.00
   7.450    4.41  -12.22    0.60   0.000   0.200   0.000    0.00
   7.500    4.54  -10.96    0.43   0.000   0.200   0.000    0.00
   7.550    4.39   -8.87    0.13   0.000   0.200   0.000    0.00
   7.600    4.33   -9.74    0.11   0.000   0.200   0.000    0.00
   7.650    4.22  -10.47    0.16   0.000   0.200   0.000    0.00
   7.700    4.15   -9.63   -0.27   0.000   0.200   0.000    0.00
   7.750    4.02  -10.76    0.08   0.000   0.200   0.000    0.00
   7.800    4.06   -8.98    0.24   0.000   0.200   0.000    0.00
   7.850    4.01   -9.27    0.24   0.000   0.200   0.000    0.00
   7.900    3.97  -10.73    0.15   0.000   0.200   0.000    0.00
   7.950    3.91  -11.92    0.22   0.000   0.200   0.000    0.00
   8.000    4.21  -13.97    0.31   0.000   0.200   0.000    0.00
   8.050    4.16  -15.56    0.61   0.000   0.200   0.000    0.00
   8.100    3.93  -11.29    0.63   0.000   0.200   0.000    0.00
   8.150    4.11  -11.69    0.29   0.000   0.200   0.000    0.00
   8.200    4.27  -12.63    0.30   0.000   0.200   0.000    0.00
   8.250    4.33  -14.37    0.03   0.000   0.200   0.000    0.00
   8.300    4.22  -12.98    0.11   0.000   0.200   0.000    0.00
   8.350    4.06  -12.95    0.32   0.000   0.200   0.000    0.00
   8.400    3.86  -14.39   -0.02   0.000   0.200   0.000    0.00
   8.450    3.95  -13.65   -0.15   0.000   0.200   0.000    0.00
   8.500    4.11   -9.76    0.06   0.000   0.200   0.000    0.00
   8.550    4.14  -11.99    0.10   0.000   0.200   0.000    0.00
   8.600    4.34  -14.53    0.00   0.000   0.200   0.000    0.00
   8.650    4.24  -13.64   -0.06   0.000   0.200   0.000    0.00
   8.700    4.43  -13.36   -0.08   0.000   0.200   0.000    0.00
   8.750    4.71  -11.00    0.10   0.000   0.200   0.000    0.00
   8.800    4.87  -10.35    0.20   0.000   0.200   0.000    0.00
   8.850    4.65  -11.20    0.19   0.000   0.200   0.000    0.00
   8.900    4.63  -13.42    0.10   0.000   0.200   0.000    0.00
   8.950    4.77  -11.26    0.15   0.000   0.200   0.000    0.00
   9.000    4.68  -12.79    0.11   0.000   0.200   0.000    0.00
   9.050    4.78   -9.96    0.05   0.000   0.200   0.000    0.00
   9.100    4.77   -7.19   -0.30   0.000   0.200   0.000    0.00
   9.150    4.99   -8.20   -0.66   0.000   0.200   0.000    0.00
   9.200    5.07  -10.78   -0.54   0.000   0.200   0.000    0.00
   9.250    5.08  -11.02   -0.65   0.000   0.200   0.000    0.00
   9.300    5.01  -11.18   -0.47   0.000   0.200   0.000    0.00
   9.350    5.13   -7.12   -0.23   0.000   0.200   0.000    0.00
   9.400    5.14   -5.55   -0.69   0.000   0.200   0.000    0.00
   9.450    4.88   -4.26   -0.63   0.000   0.200   0.000    0.00
   9.500    4.79   -4.54   -0.47   0.000   0.200   0.000    0.00
   9.550    4.88   -0.86   -0.97   0.000   0.200   0.000    0.00
   9.600    5.15   -0.50   -0.89   0.000   0.200   0.000    0.00
   9.650    5.29   -0.01   -0.69   0.000   0.200   0.000    0.00
   9.700    4.91   -2.11   -0.65   0.000   0.200   0.000    0.00
   9.750    4.87   -4.75   -0.46   0.000   0.200   0.000    0.00
   9.800    4.96   -4.10   -0.24   0.000   0.200   0.000    0.00
   9.850    4.91   -3.05   -0.06   0.000   0.200   0.000    0.00
   9.900    4.70   -5.01   -0.14   0.000   0.200   0.000    0.00
   9.950    4.83   -6.33   -0.27   0.000   0.200   0.000    0.00
  10.000    4.89   -3.96   -0.46   0.000   0.200   0.000    0.00
  10.050    5.04   -5.46   -0.05   0.000   0.200   0.000    0.00
  10.100    5.00   -4.60    0.07   0.000   0.200   0.000    0.00
  10.150    5.15   -3.29    0.01   0.000   0.200   0.000    0.00
  10.200    5.40   -3.82   -0.12   0.000   0.200   0.000    0.00
  10.250    5.30   -3.55   -0.34   0.000   0.200   0.000    0.00
  10.300    5.29   -3.81   -0.11   0.000   0.200   0.000    0.00
  10.350    5.08   -7.65    0.20   0.000   0.200   0.000    0.00
  10.400    5.13  -11.93   -0.12   0.000   0.200   0.000    0.00
  10.450    5.05   -9.45   -0.26   0.000   0.200   0.000    0.00
  10.500    5.20   -9.93   -0.44   0.000   0.200   0.000    0.00
  10.550    4.94  -10.06   -0.51   0.000   0.200   0.000    0.00
  10.600    5.02   -6.03   -0.61   0.000   0.200   0.000    0.00
  10.650    4.95   -6.60   -0.66   0.000   0.200   0.000    0.00
  10.700    5.05   -5.76   -0.66   0.000   0.200   0.000    0.00
  10.750    5.13   -6.07   -0.69   0.000   0.200   0.000    0.00
  10.800    5.15  -10.37   -0.27   0.000   0.200   0.000    0.00
  10.850    5.20  -12.87   -0.51   0.000   0.200   0.000    0.00
  10.900    5.23  -11.32   -0.75   0.000   0.200   0.000    0.00
  10.950    5.10   -7.90   -0.70   0.000   0.200   0.000    0.00
  11.000    5.03   -6.15   -0.74   0.000   0.200   0.000    0.00
  11.050    5.10   -1.17   -1.00   0.000   0.200   0.000    0.00
  11.100    5.12    0.14   -0.80   0.000   0.200   0.000    0.00
  11.150    5.41   -0.59   -0.97   0.000   0.200   0.000    0.00
  11.200    5.15   -2.43   -0.77   0.000   0.200   0.000    0.00
  11.250    5.18   -1.64   -0.62   0.000   0.200   0.000    0.00
  11.300    5.18   -0.75   -0.49   0.000   0.200   0.000    0.00
  11.350    5.41    2.96   -0.43   0.000   0.200   0.000    0.00
  11.400    5.11    1.54   -0.38   0.000   0.200   0.000    0.00
  11.450    5.03   -0.43   -0.44   0.000   0.200   0.000    0.00
  11.500    4.83   -5.62   -0.38   0.000   0.200   0.000    0.00
  11.550    4.82   -7.52   -0.40   0.000   0.200   0.000    0.00
  11.600    4.81   -7.56   -0.35   0.000   0.200   0.000    0.00
  11.650    4.92   -8.00   -0.22   0.000   0.200   0.000    0.00
  11.700    4.93   -5.85   -0.43   0.000   0.200   0.000    0.00
  11.750    4.81   -7.75   -0.51   0.000   0.200   0.000    0.00
  11.800    4.83   -8.26   -0.53   0.000   0.200   0.000    0.00
  11.850    4.88  -10.19   -0.31   0.000   0.200   0.000    0.00
  11.900    4.82   -9.56   -0.22   0.000   0.200   0.000    0.00
  11.950    5.04   -7.61   -0.49   0.000   0.200   0.000    0.00
  12.000    5.11   -5.79   -0.40   0.000   0.200   0.000    0.00
  12.050    4.99   -7.90   -0.50   0.000   0.200   0.000    0.00
  12.100    5.18   -6.60   -0.41   0.000   0.200   0.000    0.00
  12.150    5.21   -5.42   -0.15   0.000   0.200   0.000    0.00
  12.200    5.47   -6.70    0.03   0.000   0.200   0.000    0.00
  12.250    5.49   -4.74    0.22   0.000   0.200   0.000    0.00
  12.300    5.47   -5.86    0.19   0.000   0.200   0.000    0.00
  12.350    5.55   -2.58   -0.29   0.000   0.200   0.000    0.00
  12.400    5.46   -5.39   -0.69   0.000   0.200   0.000    0.00
  12.450    5.61   -6.74   -0.38   0.000   0.200   0.000    0.00
  12.500    5.55   -3.03   -0.25   0.000   0.200   0.000    0.00
  12.550    5.44   -5.48   -0.40   0.000   0.200   0.000    0.00
  12.600    5.37   -4.27   -0.54   0.000   0.200   0.000    0.00
  12.650    5.43   -7.88   -0.49   0.000   0.200   0.000    0.00
  12.700    5.57  -13.11   -0.26   0.000   0.200   0.000    0.00
  12.750    5.56  -13.70    0.00   0.000   0.200   0.000    0.00
  12.800    5.70  -13.02    0.17   0.000   0.200   0.000    0.00
  12.850    5.35  -15.91   -0.02   0.000   0.200   0.000    0.00
  12.900    5.31  -13.28   -0.26   0.000   0.200   0.000    0.00
  12.950    5.35  -17.87   -0.39   0.000   0.200   0.000    0.00
  13.000    5.32  -17.00   -0.34   0.000   0.200   0.000    0.00
  13.050    5.35  -14.14   -0.18   0.000   0.200   0.000    0.00
  13.100    5.47  -12.67   -0.37   0.000   0.200   0.000    0.00
  13.150    5.53  -11.82   -0.44   0.000   0.200   0.000    0.00
  13.200    5.66  -14.42   -0.39   0.000   0.200   0.000    0.00
  13.250    5.58  -14.24   -0.56   0.000   0.200   0.000    0.00
  13.300    5.67  -13.17   -0.62   0.000   0.200   0.000    0.00
  13.350    5.66  -14.16   -0.33   0.000   0.200   0.000    0.00
  13.400    5.60  -14.15   -0.21   0.000   0.200   0.000    0.00
  13.450    5.34  -16.13    0.07   0.000   0.200   0.000    0.00
  13.500    5.32  -12.04    0.09   0.000   0.200   0.000    0.00
  13.550    5.37   -9.02    0.15   0.000   0.200   0.000    0.00
  13.600    5.39   -7.81   -0.06   0.000   0.200   0.000    0.00
  13.650    5.60   -8.71   -0.23   0.000   0.200   0.000    0.00
  13.700    5.84  -11.86   -0.09   0.000   0.200   0.000    0.00
  13.750    5.85   -9.28   -0.19   0.000   0.200   0.000    0.00
  13.800    5.98  -13.50   -0.29   0.000   0.200   0.000    0.00
  13.850    6.00  -12.98   -0.16   0.000   0.200   0.000    0.00
  13.900    5.82  -10.68   -0.57   0.000   0.200   0.000    0.00
  13.950    5.90  -12.94   -0.76   0.000   0.200   0.000    0.00
  14.000    5.99  -13.68   -0.65   0.000   0.200   0.000    0.00
  14.050    5.95  -14.80   -0.38   0.000   0.200   0.000    0.00
  14.100    6.28  -17.39   -0.56   0.000   0.200   0.000    0.00
  14.150    6.05  -17.44   -0.72   0.000   0.200   0.000    0.00
  14.200    5.79  -15.04   -0.45   0.000   0.200   0.000    0.00
  14.250    5.99  -14.15   -0.48   0.000   0.200   0.000    0.00
  14.300    5.81  -15.28   -0.74   0.000   0.200   0.000    0.00
  14.350    5.68  -16.59   -0.71   0.000   0.200   0.000    0.00
  14.400    5.42  -15.44   -0.52   0.000   0.200   0.000    0.00
  14.450    5.28  -14.70   -0.54   0.000   0.200   0.000    0.00
  14.500    5.46  -17.74   -0.31   0.000   0.200   0.000    0.00
  14.550    5.72  -20.72   -0.45   0.000   0.200   0.000    0.00
  14.600    5.63  -20.49   -0.58   0.000   0.200   0.000    0.00
  14.650    5.69  -21.07   -0.43   0.000   0.200   0.000    0.00
  14.700    5.54  -20.88   -0.42   0.000   0.200   0.000    0.00
  14.750    5.50  -20.10   -0.06   0.000   0.200   0.000    0.00
  14.800    5.53  -18.83    0.14   0.000   0.200   0.000    0.00
  14.850    5.18  -20.07    0.52   0.000   0.200   0.000    0.00
  14.900    5.19  -19.91    0.63   0.000   0.200   0.000    0.00
  14.950    5.46  -19.73    0.44   0.000   0.200   0.000    0.00
  15.000    5.65  -21.10    0.42   0.000   0.200   0.000    0.00
  15.050    5.70  -23.37    0.40   0.000   0.200   0.000    0.00
  15.100    5.57  -21.93    0.47   0.000   0.200   0.000    0.00
  15.150    5.33  -25.17    0.32   0.000   0.200   0.000    0.00
  15.200    4.99  -25.84    0.30   0.000   0.200   0.000    0.00
  15.250    5.10  -24.95    0.57   0.000   0.200   0.000    0.00
  15.300    5.09  -23.65    0.53   0.000   0.200   0.000    0.00
  15.350    5.15  -21.85    0.63   0.000   0.200   0.000    0.00
  15.400    5.13  -23.14    0.48   0.000   0.200   0.000    0.00
  15.450    5.26  -21.17    0.57   0.000   0.200   0.000    0.00
  15.500    5.16  -20.64    0.36   0.000   0.200   0.000    0.00
  15.550    5.08  -19.42    0.64   0.000   0.200   0.000    0.00
  15.600    5.31  -23.84    0.79   0.000   0.200   0.000    0.00
  15.650    5.28  -21.29    0.78   0.000   0.200   0.000    0.00
  15.700    5.26  -20.73    0.60   0.000   0.200   0.000    0.00
  15.750    5.07  -18.29    0.85   0.000   0.200   0.000    0.00
  15.800    4.84  -19.57    0.81   0.000   0.200   0.000    0.00
  15.850    4.67  -18.96    1.09   0.000   0.200   0.000    0.00
  15.900    4.93  -25.85    1.18   0.000   0.200   0.000    0.00
  15.950    4.97  -26.80    1.10   0.000   0.200   0.000    0.00
  16.000    5.30  -24.86    1.01   0.000   0.200   0.000    0.00
  16.050    5.04  -21.97    0.98   0.000   0.200   0.000    0.00
  16.100    4.91  -22.45    0.85   0.000   0.200   0.000    0.00
  16.150    5.10  -22.61    0.85   0.000   0.200   0.000    0.00
  16.200    5.34  -23.41    0.61   0.000   0.200   0.000    0.00
  16.250    5.46  -21.46    0.42   0.000   0.200   0.000    0.00
  16.300    5.32  -21.52    0.37   0.000   0.200   0.000    0.00
  16.350    5.50  -20.71    0.26   0.000   0.200   0.000    0.00
  16.400    5.44  -21.83   -0.02   0.000   0.200   0.000    0.00
  16.450    5.33  -21.92   -0.17   0.000   0.200   0.000    0.00
  16.500    5.19  -22.38   -0.47   0.000   0.200   0.000    0.00
  16.550    5.37  -21.43   -0.45   0.000   0.200   0.000    0.00
  16.600    5.29  -24.24   -0.24   0.000   0.200   0.000    0.00
  16.650    5.30  -26.14   -0.07   0.000   0.200   0.000    0.00
  16.700    5.44  -25.75   -0.08   0.000   0.200   0.000    0.00
  16.750    5.40  -26.58   -0.20   0.000   0.200   0.000    0.00
  16.800    5.31  -24.05   -0.14   0.000   0.200   0.000    0.00
  16.850    5.53  -23.37   -0.22   0.000   0.200   0.000    0.00
  16.900    5.45  -23.22   -0.38   0.000   0.200   0.000    0.00
  16.950    5.59  -23.88   -0.26   0.000   0.200   0.000    0.00
  17.000    5.60  -21.84   -0.32   0.000   0.200   0.000    0.00
  17.050    5.47  -20.77   -0.24   0.000   0.200   0.000    0.00
  17.100    5.38  -20.57   -0.17   0.000   0.200   0.000    0.00
  17.150    5.35  -22.14    0.01   0.000   0.200   0.000    0.00
  17.200    5.32  -22.79    0.20   0.000   0.200   0.000    0.00
  17.250    5.47  -22.20    0.08   0.000   0.200   0.000    0.00
  17.300    5.48  -23.32   -0.13   0.000   0.200   0.000    0.00
  17.350    5.48  -23.65   -0.55   0.000   0.200   0.000    0.00
  17.400    5.58  -24.34   -0.45   0.000   0.200   0.000    0.00
  17.450    5.55  -24.43   -0.37   0.000   0.200   0.000    0.00
  17.500    5.20  -21.37   -0.38   0.000   0.200   0.000    0.00
  17.550    5.07  -22.34   -0.22   0.000   0.200   0.000    0.00
  17.600    5.29  -26.11   -0.19   0.000   0.200   0.000    0.00
  17.650    5.40  -27.44   -0.20   0.000   0.200   0.000    0.00
  17.700    5.26  -26.07   -0.21   0.000   0.200   0.000    0.00
  17.750    5.32  -28.26   -0.30   0.000   0.200   0.000    0.00
  17.800    5.14  -25.62   -0.28   0.000   0.200   0.000    0.00
  17.850    4.98  -24.38   -0.56   0.000   0.200   0.000    0.00
  17.900    4.86  -23.25   -0.58   0.000   0.200   0.000    0.00
  17.950    4.70  -22.84   -0.46   0.000   0.200   0.000    0.00
  18.000    4.79  -25.88   -0.40   0.000   0.200   0.000    0.00
  18.050    5.06  -22.23   -0.34   0.000   0.200   0.000    0.00
  18.100    5.15  -21.74   -0.31   0.000   0.200   0.000    0.00
  18.150    5.14  -21.91   -0.16   0.000   0.200   0.000    0.00
  18.200    5.26  -23.05   -0.21   0.000   0.200   0.000    0.00
  18.250    5.17  -22.11   -0.23   0.000   0.200   0.000    0.00
  18.300    5.25  -21.60   -0.52   0.000   0.200   0.000    0.00
  18.350    4.91  -23.46   -0.25   0.000   0.200   0.000    0.00
  18.400    4.97  -24.06   -0.12   0.000   0.200   0.000    0.00
  18.450    4.86  -26.01    0.18   0.000   0.200   0.000    0.00
  18.500    5.04  -24.54    0.09   0.000   0.200   0.000    0.00
  18.550    5.01  -22.11    0.10   0.000   0.200   0.000    0.00
  18.600    4.82  -19.41    0.12   0.000   0.200   0.000    0.00
  18.650    5.38  -16.46    0.17   0.000   0.200   0.000    0.00
  18.700    5.22  -15.69   -0.10   0.000   0.200   0.000    0.00
  18.750    5.16  -18.19   -0.31   0.000   0.200   0.000    0.00
  18.800    4.99  -15.96   -0.03   0.000   0.200   0.000    0.00
  18.850    5.02  -15.56   -0.21   0.000   0.200   0.000    0.00
  18.900    4.98  -14.92   -0.26   0.000   0.200   0.000    0.00
  18.950    4.97  -13.98    0.08   0.000   0.200   0.000    0.00
  19.000    5.04  -17.18    0.08   0.000   0.200   0.000    0.00
  19.050    4.94  -18.26    0.13   0.000   0.200   0.000    0.00
  19.100    4.80  -19.26    0.07   0.000   0.200   0.000    0.00
  19.150    4.51  -20.58    0.01   0.000   0.200   0.000    0.00
  19.200    4.77  -22.22    0.02   0.000   0.200   0.000    0.00
  19.250    5.18  -21.22    0.01   0.000   0.200   0.000    0.00
  19.300    5.25  -19.34    0.55   0.000   0.200   0.000    0.00
  19.350    5.42  -18.31    0.52   0.000   0.200   0.000    0.00
  19.400    5.79  -18.23    0.67   0.000   0.200   0.000    0.00
  19.450    5.78  -13.63    0.74   0.000   0.200   0.000    0.00
  19.500    5.58  -13.05    0.60   0.000   0.200   0.000    0.00
  19.550    5.59  -18.04    0.43   0.000   0.200   0.000    0.00
  19.600    5.74  -16.77    0.43   0.000   0.200   0.000    0.00
  19.650    5.47  -17.08    0.72   0.000   0.200   0.000    0.00
  19.700    5.52  -12.51    0.79   0.000   0.200   0.000    0.00
  19.750    5.60  -13.57    0.61   0.000   0.200   0.000    0.00
  19.800    5.60  -11.53    0.35   0.000   0.200   0.000    0.00
  19.850    5.68   -9.40    0.26   0.000   0.200   0.000    0.00
  19.900    5.54   -7.42    0.37   0.000   0.200   0.000    0.00
  19.950    5.54   -7.50    0.47   0.000   0.200   0.000    0.00
  20.000    5.37   -6.56    0.42   0.000   0.200   0.000    0.00
  20.050    5.52   -6.30    0.19   0.000   0.200   0.000    0.00
  20.100    5.71   -7.51    0.28   0.000   0.200   0.000    0.00
  20.150    5.80   -8.31    0.10   0.000   0.200   0.000    0.00
  20.200    5.76   -7.20    0.19   0.000   0.200   0.000    0.00
  20.250    5.51   -7.04    0.08   0.000   0.200   0.000    0.00
  20.300    5.33   -7.29    0.06   0.000   0.200   0.000    0.00
  20.350    5.21   -7.67    0.23   0.000   0.200   0.000    0.00
  20.400    5.22   -9.43    0.10   0.000   0.200   0.000    0.00
  20.450    5.38  -11.52   -0.15   0.000   0.200   0.000    0.00
  20.500    5.38  -16.17   -0.04   0.000   0.200   0.000    0.00
  20.550    5.39  -16.13    0.15   0.000   0.200   0.000    0.00
  20.600    5.29  -13.86    0.37   0.000   0.200   0.000    0.00
  20.650    5.27  -12.89    0.30   0.000   0.200   0.000    0.00
  20.700    5.18  -12.00    0.13   0.000   0.200   0.000    0.00
  20.750    4.79  -11.91    0.48   0.000   0.200   0.000    0.00
  20.800    5.06  -11.07    0.46   0.000   0.200   0.000    0.00
  20.850    5.12   -9.07    0.87   0.000   0.200   0.000    0.00
  20.900    4.88   -7.95    1.04   0.000   0.200   0.000    0.00
  20.950    4.95  -10.03    0.84   0.000   0.200   0.000    0.00
  21.000    4.82   -9.53    0.76   0.000   0.200   0.000    0.00
  21.050    4.52   -6.96    0.60   0.000   0.200   0.000    0.00
  21.100    4.49  -11.41    0.42   0.000   0.200   0.000    0.00
  21.150    4.53   -8.89    0.33   0.000   0.200   0.000    0.00
  21.200    4.92  -13.22    0.08   0.000   0.200   0.000    0.00
  21.250    4.73  -12.52    0.15   0.000   0.200   0.000    0.00
  21.300    4.71  -14.10    0.14   0.000   0.200   0.000    0.00
  21.350    4.90  -13.50    0.23   0.000   0.200   0.000    0.00
  21.400    4.76  -10.00    0.33   0.000   0.200   0.000    0.00
  21.450    4.77  -11.85    0.29   0.000   0.200   0.000    0.00
  21.500    4.84  -13.10    0.15   0.000   0.200   0.000    0.00
  21.550    4.93  -13.98    0.31   0.000   0.200   0.000    0.00
  21.600    4.64  -14.63    0.37   0.000   0.200   0.000    0.00
  21.650    4.50  -12.60    0.17   0.000   0.200   0.000    0.00
  21.700    4.50  -12.32    0.14   0.000   0.200   0.000    0.00
  21.750    4.68  -16.58    0.06   0.000   0.200   0.000    0.00
  21.800    4.90  -15.93    0.35   0.000   0.200   0.000    0.00
  21.850    4.98  -13.35    0.08   0.000   0.200   0.000    0.00
  21.900    4.67  -11.61    0.08   0.000   0.200   0.000    0.00
  21.950    4.70   -9.79   -0.01   0.000   0.200   0.000    0.00
  22.000    4.67  -10.64   -0.33   0.000   0.200   0.000    0.00
  22.050    4.61  -12.07   -0.41   0.000   0.200   0.000    0.00
  22.100    4.69   -9.59   -0.60   0.000   0.200   0.000    0.00
  22.150    4.90   -8.21   -0.53   0.000   0.200   0.000    0.00
  22.200    4.78   -6.57   -0.28   0.000   0.200   0.000    0.00
  22.250    4.88   -8.66   -0.35   0.000   0.200   0.000    0.00
  22.300    4.87  -12.10   -0.26   0.000   0.200   0.000    0.00
  22.350    4.69  -12.87   -0.27   0.000   0.200   0.000    0.00