! This hub-height wind-speed file was generated by TurbSim (v1.06.00, 21-Sep-2012) on 16-Jun-2018 at 18:36:53.
!
! The requested statistics for this data were:
!    Mean Total Wind Speed =    5.000 m/s
!    Turbulence Intensity  =   51.162%
!
!   Time  HorSpd  WndDir  VerSpd  HorShr  VerShr  LnVShr  GstSpd
!  (sec)   (m/s)   (deg)   (m/s)     (-)     (-)     (-)   (m/s)
   0.000    6.73   -4.03   -1.43   0.000   0.200   0.000    0.00
   0.050    6.66   -2.02   -0.94   0.000   0.200   0.000    0.00
   0.100    6.42   -4.65   -0.85   0.000   0.200   0.000    0.00
   0.150    6.41   -2.75   -1.09   0.000   0.200   0.000    0.00
   0.200    6.32   -3.78   -0.82   0.000   0.200   0.000    0.00
   0.250    6.44   -9.24   -1.29   0.000   0.200   0.000    0.00
   0.300    5.95   -8.35   -1.74   0.000   0.200   0.000    0.00
   0.350    6.04   -9.73   -1.78   0.000   0.200   0.000    0.00
   0.400    6.16   -8.58   -1.25   0.000   0.200   0.000    0.00
   0.450    5.40   -5.72   -0.85   0.000   0.200   0.000    0.00
   0.500    5.48   -8.32   -0.66   0.000   0.200   0.000    0.00
   0.550    5.72   -9.42   -1.09   0.000   0.200   0.000    0.00
   0.600    6.34   -7.78   -1.30   0.000   0.200   0.000    0.00
   0.650    5.96   -8.51   -1.39   0.000   0.200   0.000    0.00
   0.700    6.01  -13.97   -1.62   0.000   0.200   0.000    0.00
   0.750    6.02   -9.76   -1.34   0.000   0.200   0.000    0.00
   0.800    6.51   -7.85   -1.44   0.000   0.200   0.000    0.00
   0.850    6.54   -7.75   -1.67   0.000   0.200   0.000    0.00
   0.900    6.38   -3.12   -2.24   0.000   0.200   0.000    0.00
   0.950    5.92   -0.13   -2.15   0.000   0.200   0.000    0.00
   1.000    6.36   -3.25   -1.98   0.000   0.200   0.000    0.00
   1.050    6.32   -4.57   -2.60   0.000   0.200   0.000    0.00
   1.100    6.54    0.53   -2.21   0.000   0.200   0.000    0.00
   1.150    6.54   -2.21   -2.24   0.000   0.200   0.000    0.00
   1.200    6.78   -5.26   -2.06   0.000   0.200   0.000    0.00
   1.250    6.74   -1.82   -1.59   0.000   0.200   0.000    0.00
   1.300    6.84   -0.71   -1.23   0.000   0.200   0.000    0.00
   1.350    6.76    0.67   -1.50   0.000   0.200   0.000    0.00
   1.400    6.75   -4.40   -1.51   0.000   0.200   0.000    0.00
   1.450    6.83   -3.67   -1.32   0.000   0.200   0.000    0.00
   1.500    6.58   -3.55   -1.31   0.000   0.200   0.000    0.00
   1.550    6.80   -1.15   -1.13   0.000   0.200   0.000    0.00
   1.600    6.81   -3.06   -0.42   0.000   0.200   0.000    0.00
   1.650    6.76   -1.40   -0.62   0.000   0.200   0.000    0.00
   1.700    6.78   -5.06   -0.65   0.000   0.200   0.000    0.00
   1.750    6.88   -7.24   -0.77   0.000   0.200   0.000    0.00
   1.800    6.73   -7.30   -0.91   0.000   0.200   0.000    0.00
   1.850    6.46   -6.53   -1.34   0.000   0.200   0.000    0.00
   1.900    6.65   -3.70   -0.57   0.000   0.200   0.000    0.00
   1.950    6.32    2.30   -0.86   0.000   0.200   0.000    0.00
   2.000    6.60    0.75   -0.50   0.000   0.200   0.000    0.00
   2.050    6.58    0.83   -0.24   0.000   0.200   0.000    0.00
   2.100    6.33   -2.98   -0.43   0.000   0.200   0.000    0.00
   2.150    6.02   -7.10   -0.22   0.000   0.200   0.000    0.00
   2.200    5.93   -9.36   -0.10   0.000   0.200   0.000    0.00
   2.250    5.49  -13.83   -0.06   0.000   0.200   0.000    0.00
   2.300    5.34   -9.65   -0.65   0.000   0.200   0.000    0.00
   2.350    5.28   -8.92   -0.67   0.000   0.200   0.000    0.00
   2.400    5.52   -5.68   -0.98   0.000   0.200   0.000    0.00
   2.450    5.75   -6.04   -1.03   0.000   0.200   0.000    0.00
   2.500    5.36   -3.66   -1.21   0.000   0.200   0.000    0.00
   2.550    4.47   -3.50   -0.92   0.000   0.200   0.000    0.00
   2.600    4.52   -3.88    0.13   0.000   0.200   0.000    0.00
   2.650    4.30   -5.65   -0.06   0.000   0.200   0.000    0.00
   2.700    4.91   -6.02    0.24   0.000   0.200   0.000    0.00
   2.750    5.21   -9.98   -0.25   0.000   0.200   0.000    0.00
   2.800    5.05   -6.99   -0.29   0.000   0.200   0.000    0.00
   2.850    5.28   -6.79   -0.20   0.000   0.200   0.000    0.00
   2.900    4.91  -16.29   -0.09   0.000   0.200   0.000    0.00
   2.950    4.88  -20.40   -0.46   0.000   0.200   0.000    0.00
   3.000    5.12  -17.98   -0.89   0.000   0.200   0.000    0.00
   3.050    4.86  -14.70   -0.59   0.000   0.200   0.000    0.00
   3.100    4.79   -7.40   -0.61   0.000   0.200   0.000    0.00
   3.150    5.07   -6.62   -0.52   0.000   0.200   0.000    0.00
   3.200    5.24  -13.74   -0.46   0.000   0.200   0.000    0.00
   3.250    5.29  -13.86   -0.64   0.000   0.200   0.000    0.00
   3.300    4.85   -7.80   -0.24   0.000   0.200   0.000    0.00
   3.350    5.03  -10.97    0.21   0.000   0.200   0.000    0.00
   3.400    4.91  -10.26    0.37   0.000   0.200   0.000    0.00
   3.450    4.64   -8.85   -0.40   0.000   0.200   0.000    0.00
   3.500    4.42   -6.81   -0.52   0.000   0.200   0.000    0.00
   3.550    4.25  -11.90   -0.58   0.000   0.200   0.000    0.00
   3.600    3.82   -8.43   -0.18   0.000   0.200   0.000    0.00
   3.650    4.11   -5.11    0.32   0.000   0.200   0.000    0.00
   3.700    3.86   -3.71    0.73   0.000   0.200   0.000    0.00
   3.750    3.71   -7.19    0.36   0.000   0.200   0.000    0.00
   3.800    3.52   -8.38    0.74   0.000   0.200   0.000    0.00
   3.850    3.67   -4.47    0.94   0.000   0.200   0.000    0.00
   3.900    4.06   -7.14    1.19   0.000   0.200   0.000    0.00
   3.950    3.55  -12.77    1.33   0.000   0.200   0.000    0.00
   4.000    3.24  -12.16    1.19   0.000   0.200   0.000    0.00
   4.050    3.52   -6.82    1.17   0.000   0.200   0.000    0.00
   4.100    3.75   -5.62    0.89   0.000   0.200   0.000    0.00
   4.150    3.77    1.72    1.15   0.000   0.200   0.000    0.00
   4.200    3.36   -8.75    0.83   0.000   0.200   0.000    0.00
   4.250    3.44   -9.63    0.41   0.000   0.200   0.000    0.00
   4.300    3.32   -7.00    0.42   0.000   0.200   0.000    0.00
   4.350    3.31  -13.00    0.40   0.000   0.200   0.000    0.00
   4.400    3.26  -21.99    0.26   0.000   0.200   0.000    0.00
   4.450    3.51   -9.38    0.63   0.000   0.200   0.000    0.00
   4.500    3.64  -10.29    1.31   0.000   0.200   0.000    0.00
   4.550    3.12   -3.41    0.44   0.000   0.200   0.000    0.00
   4.600    3.34   -0.35    0.24   0.000   0.200   0.000    0.00
   4.650    3.44    1.77    0.50   0.000   0.200   0.000    0.00
   4.700    3.85   -1.45    0.53   0.000   0.200   0.000    0.00
   4.750    3.87  -10.62    0.11   0.000   0.200   0.000    0.00
   4.800    3.88   -9.30    0.06   0.000   0.200   0.000    0.00
   4.850    3.87   -0.40    0.38   0.000   0.200   0.000    0.00
   4.900    3.46   -3.52    0.61   0.000   0.200   0.000    0.00
   4.950    3.62  -11.11   -0.30   0.000   0.200   0.000    0.00
   5.000    3.97   -8.82   -0.07   0.000   0.200   0.000    0.00
   5.050    4.40   -2.14    0.53   0.000   0.200   0.000    0.00
   5.100    4.80    3.47    0.51   0.000   0.200   0.000    0.00
   5.150    4.97    4.69    0.79   0.000   0.200   0.000    0.00
   5.200    4.44   -0.45    0.86   0.000   0.200   0.000    0.00
   5.250    4.17    0.72    0.71   0.000   0.200   0.000    0.00
   5.300    4.40   -2.04    0.80   0.000   0.200   0.000    0.00
   5.350    4.62    0.77    0.42   0.000   0.200   0.000    0.00
   5.400    4.57    1.45    0.36   0.000   0.200   0.000    0.00
   5.450    4.75   -1.90    0.66   0.000   0.200   0.000    0.00
   5.500    4.90  -12.58    0.27   0.000   0.200   0.000    0.00
   5.550    4.89  -11.29    0.26   0.000   0.200   0.000    0.00
   5.600    4.58  -10.43    0.95   0.000   0.200   0.000    0.00
   5.650    5.05   -6.29    0.72   0.000   0.200   0.000    0.00
   5.700    4.80   -5.14    0.39   0.000   0.200   0.000    0.00
   5.750    5.03   -4.48    0.51   0.000   0.200   0.000    0.00
   5.800    5.29   -1.39    0.93   0.000   0.200   0.000    0.00
   5.850    5.24    0.29    1.39   0.000   0.200   0.000    0.00
   5.900    5.35   -0.64    1.85   0.000   0.200   0.000    0.00
   5.950    5.34   -4.63    0.88   0.000   0.200   0.000    0.00
   6.000    4.60   -5.44    0.44   0.000   0.200   0.000    0.00
   6.050    4.39   -6.92    0.43   0.000   0.200   0.000    0.00
   6.100    4.57  -17.17    0.33   0.000   0.200   0.000    0.00
   6.150    4.51  -25.00    1.03   0.000   0.200   0.000    0.00
   6.200    3.88  -18.29    0.88   0.000   0.200   0.000    0.00
   6.250    4.09  -26.85    0.81   0.000   0.200   0.000    0.00
   6.300    4.23  -21.79    0.57   0.000   0.200   0.000    0.00
   6.350    3.79  -23.56    0.39   0.000   0.200   0.000    0.00
   6.400    3.65  -19.11    0.12   0.000   0.200   0.000    0.00
   6.450    3.95  -15.84   -0.17   0.000   0.200   0.000    0.00
   6.500    3.97   -5.60    0.06   0.000   0.200   0.000    0.00
   6.550    4.61   -2.30    0.04   0.000   0.200   0.000    0.00
   6.600    4.60   -8.41   -0.15   0.000   0.200   0.000    0.00
   6.650    4.28   -5.61    0.80   0.000   0.200   0.000    0.00
   6.700    4.47   -9.20    0.68   0.000   0.200   0.000    0.00
   6.750    4.27  -15.77    0.40   0.000   0.200   0.000    0.00
   6.800    4.06  -14.67    0.11   0.000   0.200   0.000    0.00
   6.850    4.11  -12.79    0.13   0.000   0.200   0.000    0.00
   6.900    4.29  -11.02    0.08   0.000   0.200   0.000    0.00
   6.950    3.99   -9.28   -0.62   0.000   0.200   0.000    0.00
   7.000    4.24   -4.67   -0.60   0.000   0.200   0.000    0.00
   7.050    4.26   -8.39   -0.19   0.000   0.200   0.000    0.00
   7.100    4.52   -7.15   -0.20   0.000   0.200   0.000    0.00
   7.150    4.81   -6.25   -0.19   0.000   0.200   0.000    0.00
   7.200    4.59  -11.45   -0.12   0.000   0.200   0.000    0.00
   7.250    4.30  -12.91    0.26   0.000   0.200   0.000    0.00
   7.300    3.89  -20.32   -0.21   0.000   0.200   0.000    0.00
   7.350    3.93  -20.76    0.62   0.000   0.200   0.000    0.00
   7.400    3.85  -18.97    1.09   0.000   0.200   0.000    0.00
   7.450    4.09  -26.54    1.17   0.000   0.200   0.000    0.00
   7.500    4.28  -23.20    0.83   0.000   0.200   0.000    0.00
   7.550    3.93  -19.65    0.25   0.000   0.200   0.000    0.00
   7.600    3.85  -21.85    0.21   0.000   0.200   0.000    0.00
   7.650    3.66  -24.15    0.31   0.000   0.200   0.000    0.00
   7.700    3.50  -22.81   -0.52   0.000   0.200   0.000    0.00
   7.750    3.28  -26.52    0.15   0.000   0.200   0.000    0.00
   7.800    3.30  -22.02    0.46   0.000   0.200   0.000    0.00
   7.850    3.22  -23.09    0.46   0.000   0.200   0.000    0.00
   7.900    3.20  -26.83    0.29   0.000   0.200   0.000    0.00
   7.950    3.13  -30.29    0.42   0.000   0.200   0.000    0.00
   8.000    3.77  -31.74    0.60   0.000   0.200   0.000    0.00
   8.050    3.76  -35.45    1.20   0.000   0.200   0.000    0.00
   8.100    3.15  -28.56    1.23   0.000   0.200   0.000    0.00
   8.150    3.49  -27.77    0.56   0.000   0.200   0.000    0.00
   8.200    3.84  -28.38    0.58   0.000   0.200   0.000    0.00
   8.250    4.03  -31.48    0.05   0.000   0.200   0.000    0.00
   8.300    3.75  -29.60    0.22   0.000   0.200   0.000    0.00
   8.350    3.45  -31.01    0.62   0.000   0.200   0.000    0.00
   8.400    3.15  -36.49   -0.03   0.000   0.200   0.000    0.00
   8.450    3.29  -33.67   -0.29   0.000   0.200   0.000    0.00
   8.500    3.42  -23.45    0.13   0.000   0.200   0.000    0.00
   8.550    3.57  -28.11    0.19   0.000   0.200   0.000    0.00
   8.600    4.04  -31.74   -0.01   0.000   0.200   0.000    0.00
   8.650    3.81  -30.78   -0.11   0.000   0.200   0.000    0.00
   8.700    4.17  -28.68   -0.16   0.000   0.200   0.000    0.00
   8.750    4.60  -22.42    0.20   0.000   0.200   0.000    0.00
   8.800    4.90  -20.43    0.38   0.000   0.200   0.000    0.00
   8.850    4.50  -23.09    0.37   0.000   0.200   0.000    0.00
   8.900    4.54  -27.53    0.19   0.000   0.200   0.000    0.00
   8.950    4.73  -22.61    0.30   0.000   0.200   0.000    0.00
   9.000    4.61  -26.03    0.21   0.000   0.200   0.000    0.00
   9.050    4.71  -20.06    0.10   0.000   0.200   0.000    0.00
   9.100    4.62  -14.63   -0.58   0.000   0.200   0.000    0.00
   9.150    5.08  -15.89   -1.30   0.000   0.200   0.000    0.00
   9.200    5.29  -20.49   -1.05   0.000   0.200   0.000    0.00
   9.250    5.32  -20.89   -1.27   0.000   0.200   0.000    0.00
   9.300    5.20  -21.44   -0.91   0.000   0.200   0.000    0.00
   9.350    5.32  -13.51   -0.45   0.000   0.200   0.000    0.00
   9.400    5.32  -10.53   -1.36   0.000   0.200   0.000    0.00
   9.450    4.79   -8.51   -1.23   0.000   0.200   0.000    0.00
   9.500    4.62   -9.23   -0.92   0.000   0.200   0.000    0.00
   9.550    4.77   -1.72   -1.90   0.000   0.200   0.000    0.00
   9.600    5.30   -0.94   -1.74   0.000   0.200   0.000    0.00
   9.650    5.56   -0.02   -1.35   0.000   0.200   0.000    0.00
   9.700    4.83   -4.19   -1.28   0.000   0.200   0.000    0.00
   9.750    4.79   -9.47   -0.90   0.000   0.200   0.000    0.00
   9.800    4.94   -8.05   -0.46   0.000   0.200   0.000    0.00
   9.850    4.84   -6.05   -0.12   0.000   0.200   0.000    0.00
   9.900    4.44  -10.39   -0.27   0.000   0.200   0.000    0.00
   9.950    4.72  -12.73   -0.52   0.000   0.200   0.000    0.00
  10.000    4.81   -7.88   -0.90   0.000   0.200   0.000    0.00
  10.050    5.13  -10.54   -0.10   0.000   0.200   0.000    0.00
  10.100    5.03   -8.97    0.15   0.000   0.200   0.000    0.00
  10.150    5.30   -6.26    0.02   0.000   0.200   0.000    0.00
  10.200    5.81   -6.95   -0.24   0.000   0.200   0.000    0.00
  10.250    5.61   -6.56   -0.65   0.000   0.200   0.000    0.00
  10.300    5.58   -7.08   -0.22   0.000   0.200   0.000    0.00
  10.350    5.24  -14.61    0.38   0.000   0.200   0.000    0.00
  10.400    5.46  -22.35   -0.23   0.000   0.200   0.000    0.00
  10.450    5.22  -18.09   -0.50   0.000   0.200   0.000    0.00
  10.500    5.53  -18.49   -0.86   0.000   0.200   0.000    0.00
  10.550    5.02  -19.62   -0.99   0.000   0.200   0.000    0.00
  10.600    5.09  -11.69   -1.19   0.000   0.200   0.000    0.00
  10.650    4.96  -12.94   -1.29   0.000   0.200   0.000    0.00
  10.700    5.14  -11.10   -1.30   0.000   0.200   0.000    0.00
  10.750    5.31  -11.53   -1.35   0.000   0.200   0.000    0.00
  10.800    5.44  -19.46   -0.54   0.000   0.200   0.000    0.00
  10.850    5.62  -23.77   -1.00   0.000   0.200   0.000    0.00
  10.900    5.62  -20.92   -1.46   0.000   0.200   0.000    0.00
  10.950    5.29  -15.02   -1.36   0.000   0.200   0.000    0.00
  11.000    5.10  -11.90   -1.44   0.000   0.200   0.000    0.00
  11.050    5.19   -2.25   -1.96   0.000   0.200   0.000    0.00
  11.100    5.23    0.26   -1.55   0.000   0.200   0.000    0.00
  11.150    5.80   -1.08   -1.89   0.000   0.200   0.000    0.00
  11.200    5.31   -4.61   -1.51   0.000   0.200   0.000    0.00
  11.250    5.36   -3.11   -1.21   0.000   0.200   0.000    0.00
  11.300    5.35   -1.41   -0.96   0.000   0.200   0.000    0.00
  11.350    5.82    5.39   -0.84   0.000   0.200   0.000    0.00
  11.400    5.21    2.94   -0.74   0.000   0.200   0.000    0.00
  11.450    5.05   -0.83   -0.86   0.000   0.200   0.000    0.00
  11.500    4.72  -11.30   -0.75   0.000   0.200   0.000    0.00
  11.550    4.73  -15.10   -0.78   0.000   0.200   0.000    0.00
  11.600    4.71  -15.21   -0.68   0.000   0.200   0.000    0.00
  11.650    4.93  -15.74   -0.43   0.000   0.200   0.000    0.00
  11.700    4.90  -11.53   -0.84   0.000   0.200   0.000    0.00
  11.750    4.71  -15.59   -1.00   0.000   0.200   0.000    0.00
  11.800    4.77  -16.52   -1.04   0.000   0.200   0.000    0.00
  11.850    4.90  -20.10   -0.61   0.000   0.200   0.000    0.00
  11.900    4.78  -19.12   -0.43   0.000   0.200   0.000    0.00
  11.950    5.17  -14.63   -0.97   0.000   0.200   0.000    0.00
  12.000    5.27  -11.03   -0.78   0.000   0.200   0.000    0.00
  12.050    5.08  -15.31   -0.97   0.000   0.200   0.000    0.00
  12.100    5.40  -12.42   -0.80   0.000   0.200   0.000    0.00
  12.150    5.46  -10.15   -0.29   0.000   0.200   0.000    0.00
  12.200    5.98  -12.03    0.07   0.000   0.200   0.000    0.00
  12.250    5.99   -8.52    0.43   0.000   0.200   0.000    0.00
  12.300    5.96  -10.55    0.38   0.000   0.200   0.000    0.00
  12.350    6.09   -4.61   -0.57   0.000   0.200   0.000    0.00
  12.400    5.94   -9.72   -1.35   0.000   0.200   0.000    0.00
  12.450    6.24  -11.88   -0.75   0.000   0.200   0.000    0.00
  12.500    6.08   -5.41   -0.49   0.000   0.200   0.000    0.00
  12.550    5.90   -9.91   -0.78   0.000   0.200   0.000    0.00
  12.600    5.74   -7.82   -1.05   0.000   0.200   0.000    0.00
  12.650    5.92  -14.23   -0.96   0.000   0.200   0.000    0.00
  12.700    6.33  -22.95   -0.52   0.000   0.200   0.000    0.00
  12.750    6.33  -23.99    0.00   0.000   0.200   0.000    0.00
  12.800    6.57  -22.44    0.32   0.000   0.200   0.000    0.00
  12.850    6.00  -28.49   -0.05   0.000   0.200   0.000    0.00
  12.900    5.84  -24.11   -0.51   0.000   0.200   0.000    0.00
  12.950    6.10  -31.76   -0.76   0.000   0.200   0.000    0.00
  13.000    6.01  -30.43   -0.66   0.000   0.200   0.000    0.00
  13.050    5.94  -25.47   -0.34   0.000   0.200   0.000    0.00
  13.100    6.13  -22.51   -0.73   0.000   0.200   0.000    0.00
  13.150    6.22  -20.87   -0.87   0.000   0.200   0.000    0.00
  13.200    6.55  -24.87   -0.75   0.000   0.200   0.000    0.00
  13.250    6.39  -24.82   -1.10   0.000   0.200   0.000    0.00
  13.300    6.52  -22.77   -1.22   0.000   0.200   0.000    0.00
  13.350    6.55  -24.43   -0.64   0.000   0.200   0.000    0.00
  13.400    6.43  -24.59   -0.42   0.000   0.200   0.000    0.00
  13.450    6.01  -28.88    0.13   0.000   0.200   0.000    0.00
  13.500    5.81  -21.90    0.17   0.000   0.200   0.000    0.00
  13.550    5.84  -16.39    0.30   0.000   0.200   0.000    0.00
  13.600    5.84  -14.18   -0.11   0.000   0.200   0.000    0.00
  13.650    6.27  -15.32   -0.45   0.000   0.200   0.000    0.00
  13.700    6.82  -20.12   -0.18   0.000   0.200   0.000    0.00
  13.750    6.77  -15.80   -0.38   0.000   0.200   0.000    0.00
  13.800    7.14  -22.49   -0.57   0.000   0.200   0.000    0.00
  13.850    7.15  -21.60   -0.31   0.000   0.200   0.000    0.00
  13.900    6.74  -18.22   -1.12   0.000   0.200   0.000    0.00
  13.950    6.97  -21.77   -1.48   0.000   0.200   0.000    0.00
  14.000    7.17  -22.74   -1.27   0.000   0.200   0.000    0.00
  14.050    7.12  -24.65   -0.74   0.000   0.200   0.000    0.00
  14.100    7.84  -27.87   -1.09   0.000   0.200   0.000    0.00
  14.150    7.41  -28.58   -1.41   0.000   0.200   0.000    0.00
  14.200    6.83  -25.49   -0.89   0.000   0.200   0.000    0.00
  14.250    7.18  -23.50   -0.94   0.000   0.200   0.000    0.00
  14.300    6.88  -25.82   -1.45   0.000   0.200   0.000    0.00
  14.350    6.66  -28.39   -1.38   0.000   0.200   0.000    0.00
  14.400    6.12  -27.42   -1.01   0.000   0.200   0.000    0.00
  14.450    5.83  -26.69   -1.06   0.000   0.200   0.000    0.00
  14.500    6.29  -31.11   -0.61   0.000   0.200   0.000    0.00
  14.550    6.93  -34.82   -0.88   0.000   0.200   0.000    0.00
  14.600    6.74  -34.82   -1.14   0.000   0.200   0.000    0.00
  14.650    6.88  -35.50   -0.84   0.000   0.200   0.000    0.00
  14.700    6.58  -35.85   -0.82   0.000   0.200   0.000    0.00
  14.750    6.48  -34.74   -0.11   0.000   0.200   0.000    0.00
  14.800    6.48  -32.58    0.27   0.000   0.200   0.000    0.00
  14.850    5.88  -36.25    1.03   0.000   0.200   0.000    0.00
  14.900    5.89  -35.92    1.24   0.000   0.200   0.000    0.00
  14.950    6.39  -34.33    0.86   0.000   0.200   0.000    0.00
  15.000    6.81  -35.72    0.82   0.000   0.200   0.000    0.00
  15.050    7.03  -38.99    0.79   0.000   0.200   0.000    0.00
  15.100    6.70  -37.37    0.93   0.000   0.200   0.000    0.00
  15.150    6.44  -43.55    0.63   0.000   0.200   0.000    0.00
  15.200    5.83  -46.73    0.59   0.000   0.200   0.000    0.00
  15.250    5.99  -44.59    1.11   0.000   0.200   0.000    0.00
  15.300    5.89  -42.62    1.05   0.000   0.200   0.000    0.00
  15.350    5.90  -39.37    1.24   0.000   0.200   0.000    0.00
  15.400    5.94  -41.55    0.94   0.000   0.200   0.000    0.00
  15.450    6.08  -37.63    1.11   0.000   0.200   0.000    0.00
  15.500    5.86  -37.31    0.69   0.000   0.200   0.000    0.00
  15.550    5.66  -35.72    1.25   0.000   0.200   0.000    0.00
  15.600    6.31  -41.65    1.54   0.000   0.200   0.000    0.00
  15.650    6.13  -37.71    1.53   0.000   0.200   0.000    0.00
  15.700    6.06  -36.92    1.17   0.000   0.200   0.000    0.00
  15.750    5.58  -33.84    1.67   0.000   0.200   0.000    0.00
  15.800    5.21  -37.43    1.59   0.000   0.200   0.000    0.00
  15.850    4.87  -37.51    2.13   0.000   0.200   0.000    0.00
  15.900    5.73  -47.13    2.30   0.000   0.200   0.000    0.00
  15.950    5.86  -48.34    2.15   0.000   0.200   0.000    0.00
  16.000    6.35  -43.27    1.98   0.000   0.200   0.000    0.00
  16.050    5.70  -40.21    1.91   0.000   0.200   0.000    0.00
  16.100    5.50  -41.81    1.65   0.000   0.200   0.000    0.00
  16.150    5.87  -40.84    1.65   0.000   0.200   0.000    0.00
  16.200    6.34  -40.80    1.20   0.000   0.200   0.000    0.00
  16.250    6.47  -37.11    0.83   0.000   0.200   0.000    0.00
  16.300    6.21  -37.89    0.73   0.000   0.200   0.000    0.00
  16.350    6.50  -35.75    0.50   0.000   0.200   0.000    0.00
  16.400    6.46  -37.78   -0.04   0.000   0.200   0.000    0.00
  16.450    6.26  -38.46   -0.33   0.000   0.200   0.000    0.00
  16.500    6.01  -39.98   -0.92   0.000   0.200   0.000    0.00
  16.550    6.29  -37.52   -0.87   0.000   0.200   0.000    0.00
  16.600    6.31  -42.33   -0.46   0.000   0.200   0.000    0.00
  16.650    6.42  -45.25   -0.14   0.000   0.200   0.000    0.00
  16.700    6.67  -43.85   -0.15   0.000   0.200   0.000    0.00
  16.750    6.65  -45.31   -0.39   0.000   0.200   0.000    0.00
  16.800    6.33  -41.92   -0.27   0.000   0.200   0.000    0.00
  16.850    6.71  -39.75   -0.44   0.000   0.200   0.000    0.00
  16.900    6.54  -39.95   -0.74   0.000   0.200   0.000    0.00
  16.950    6.84  -40.28   -0.50   0.000   0.200   0.000    0.00
  17.000    6.74  -37.10   -0.62   0.000   0.200   0.000    0.00
  17.050    6.46  -35.95   -0.46   0.000   0.200   0.000    0.00
  17.100    6.27  -36.08   -0.33   0.000   0.200   0.000    0.00
  17.150    6.29  -38.74    0.02   0.000   0.200   0.000    0.00
  17.200    6.27  -39.92    0.39   0.000   0.200   0.000    0.00
  17.250    6.53  -38.23    0.15   0.000   0.200   0.000    0.00
  17.300    6.61  -39.92   -0.24   0.000   0.200   0.000    0.00
  17.350    6.62  -40.44   -1.07   0.000   0.200   0.000    0.00
  17.400    6.84  -41.06   -0.89   0.000   0.200   0.000    0.00
  17.450    6.79  -41.31   -0.72   0.000   0.200   0.000    0.00
  17.500    5.97  -38.29   -0.74   0.000   0.200   0.000    0.00
  17.550    5.78  -40.62   -0.44   0.000   0.200   0.000    0.00
  17.600    6.40  -45.26   -0.38   0.000   0.200   0.000    0.00
  17.650    6.70  -46.61   -0.38   0.000   0.200   0.000    0.00
  17.700    6.34  -45.38   -0.41   0.000   0.200   0.000    0.00
  17.750    6.60  -48.28   -0.58   0.000   0.200   0.000    0.00
  17.800    6.10  -45.40   -0.55   0.000   0.200   0.000    0.00
  17.850    5.74  -44.46   -1.09   0.000   0.200   0.000    0.00
  17.900    5.44  -43.50   -1.13   0.000   0.200   0.000    0.00
  17.950    5.14  -43.96   -0.90   0.000   0.200   0.000    0.00
  18.000    5.48  -48.21   -0.78   0.000   0.200   0.000    0.00
  18.050    5.76  -40.47   -0.67   0.000   0.200   0.000    0.00
  18.100    5.91  -39.14   -0.61   0.000   0.200   0.000    0.00
  18.150    5.90  -39.49   -0.31   0.000   0.200   0.000    0.00
  18.200    6.18  -40.64   -0.41   0.000   0.200   0.000    0.00
  18.250    5.96  -39.65   -0.45   0.000   0.200   0.000    0.00
  18.300    6.08  -38.40   -1.02   0.000   0.200   0.000    0.00
  18.350    5.56  -43.45   -0.48   0.000   0.200   0.000    0.00
  18.400    5.69  -44.03   -0.23   0.000   0.200   0.000    0.00
  18.450    5.61  -47.92    0.35   0.000   0.200   0.000    0.00
  18.500    5.85  -44.35    0.17   0.000   0.200   0.000    0.00
  18.550    5.66  -40.61    0.19   0.000   0.200   0.000    0.00
  18.600    5.16  -37.28    0.23   0.000   0.200   0.000    0.00
  18.650    6.09  -29.29    0.32   0.000   0.200   0.000    0.00
  18.700    5.76  -28.65   -0.19   0.000   0.200   0.000    0.00
  18.750    5.74  -33.23   -0.60   0.000   0.200   0.000    0.00
  18.800    5.32  -30.23   -0.05   0.000   0.200   0.000    0.00
  18.850    5.37  -29.33   -0.42   0.000   0.200   0.000    0.00
  18.900    5.26  -28.42   -0.51   0.000   0.200   0.000    0.00
  18.950    5.22  -26.74    0.15   0.000   0.200   0.000    0.00
  19.000    5.47  -32.11    0.16   0.000   0.200   0.000    0.00
  19.050    5.34  -34.53    0.25   0.000   0.200   0.000    0.00
  19.100    5.12  -37.16    0.13   0.000   0.200   0.000    0.00
  19.150    4.66  -41.64    0.01   0.000   0.200   0.000    0.00
  19.200    5.23  -42.39    0.04   0.000   0.200   0.000    0.00
  19.250    5.92  -38.17    0.01   0.000   0.200   0.000    0.00
  19.300    5.97  -34.69    1.08   0.000   0.200   0.000    0.00
  19.350    6.24  -32.20    1.01   0.000   0.200   0.000    0.00
  19.400    6.94  -30.64    1.31   0.000   0.200   0.000    0.00
  19.450    6.75  -23.21    1.46   0.000   0.200   0.000    0.00
  19.500    6.34  -22.82    1.17   0.000   0.200   0.000    0.00
  19.550    6.56  -31.05    0.84   0.000   0.200   0.000    0.00
  19.600    6.80  -28.46    0.83   0.000   0.200   0.000    0.00
  19.650    6.30  -29.95    1.40   0.000   0.200   0.000    0.00
  19.700    6.23  -22.06    1.54   0.000   0.200   0.000    0.00
  19.750    6.41  -23.62    1.20   0.000   0.200   0.000    0.00
  19.800    6.34  -20.18    0.69   0.000   0.200   0.000    0.00
  19.850    6.45  -16.33    0.51   0.000   0.200   0.000    0.00
  19.900    6.13  -13.19    0.72   0.000   0.200   0.000    0.00
  19.950    6.13  -13.33    0.92   0.000   0.200   0.000    0.00
  20.000    5.78  -11.98    0.83   0.000   0.200   0.000    0.00
  20.050    6.07  -11.24    0.37   0.000   0.200   0.000    0.00
  20.100    6.46  -13.05    0.56   0.000   0.200   0.000    0.00
  20.150    6.65  -14.27    0.19   0.000   0.200   0.000    0.00
  20.200    6.54  -12.44    0.36   0.000   0.200   0.000    0.00
  20.250    6.06  -12.58    0.16   0.000   0.200   0.000    0.00
  20.300    5.72  -13.36    0.12   0.000   0.200   0.000    0.00
  20.350    5.50  -14.33    0.45   0.000   0.200   0.000    0.00
  20.400    5.55  -17.52    0.19   0.000   0.200   0.000    0.00
  20.450    5.92  -20.79   -0.29   0.000   0.200   0.000    0.00
  20.500    6.08  -28.80   -0.08   0.000   0.200   0.000    0.00
  20.550    6.10  -28.69    0.28   0.000   0.200   0.000    0.00
  20.600    5.82  -25.18    0.73   0.000   0.200   0.000    0.00
  20.650    5.75  -23.55    0.59   0.000   0.200   0.000    0.00
  20.700    5.54  -22.32    0.24   0.000   0.200   0.000    0.00
  20.750    4.80  -23.76    0.93   0.000   0.200   0.000    0.00
  20.800    5.28  -21.06    0.89   0.000   0.200   0.000    0.00
  20.850    5.35  -17.17    1.69   0.000   0.200   0.000    0.00
  20.900    4.85  -15.78    2.03   0.000   0.200   0.000    0.00
  20.950    5.05  -19.50    1.65   0.000   0.200   0.000    0.00
  21.000    4.79  -19.04    1.49   0.000   0.200   0.000    0.00
  21.050    4.13  -14.99    1.18   0.000   0.200   0.000    0.00
  21.100    4.21  -24.37    0.82   0.000   0.200   0.000    0.00
  21.150    4.19  -19.02    0.65   0.000   0.200   0.000    0.00
  21.200    5.08  -25.63    0.16   0.000   0.200   0.000    0.00
  21.250    4.70  -25.24    0.28   0.000   0.200   0.000    0.00
  21.300    4.72  -28.34    0.27   0.000   0.200   0.000    0.00
  21.350    5.07  -26.19    0.45   0.000   0.200   0.000    0.00
  21.400    4.67  -20.22    0.64   0.000   0.200   0.000    0.00
  21.450    4.76  -23.72    0.57   0.000   0.200   0.000    0.00
  21.500    4.94  -25.75    0.28   0.000   0.200   0.000    0.00
  21.550    5.14  -26.94    0.60   0.000   0.200   0.000    0.00
  21.600    4.61  -29.78    0.73   0.000   0.200   0.000    0.00
  21.650    4.27  -26.70    0.33   0.000   0.200   0.000    0.00
  21.700    4.26  -26.14    0.28   0.000   0.200   0.000    0.00
  21.750    4.77  -33.15    0.12   0.000   0.200   0.000    0.00
  21.800    5.15  -30.67    0.68   0.000   0.200   0.000    0.00
  21.850    5.21  -25.55    0.16   0.000   0.200   0.000    0.00
  21.900    4.55  -23.79    0.17   0.000   0.200   0.000    0.00
  21.950    4.56  -20.04   -0.01   0.000   0.200   0.000    0.00
  22.000    4.53  -21.86   -0.64   0.000   0.200   0.000    0.00
  22.050    4.47  -24.98   -0.81   0.000   0.200   0.000    0.00
  22.100    4.54  -19.68   -1.17   0.000   0.200   0.000    0.00
  22.150    4.89  -16.22   -1.03   0.000   0.200   0.000    0.00
  22.200    4.63  -13.35   -0.55   0.000   0.200   0.000    0.00
  22.250    4.88  -17.14   -0.68   0.000   0.200   0.000    0.00
  22.300    4.95  -23.75   -0.51   0.000   0.200   0.000    0.00
  22.350    4.64  -26.10   -0.54   0.000   0.200   0.000    0.00