! This hub-height wind-speed file was generated by TurbSim (v1.06.00, 21-Sep-2012) on 16-Jun-2018 at 18:32:35.
!
! The requested statistics for this data were:
!    Mean Total Wind Speed =    5.000 m/s
!    Turbulence Intensity  =   26.180%
!
!   Time  HorSpd  WndDir  VerSpd  HorShr  VerShr  LnVShr  GstSpd
!  (sec)   (m/s)   (deg)   (m/s)     (-)     (-)     (-)   (m/s)
   0.000    5.92   18.19   -0.11   0.000   0.200   0.000    0.00
   0.050    5.88   15.65    0.15   0.000   0.200   0.000    0.00
   0.100    5.64   15.55    0.26   0.000   0.200   0.000    0.00
   0.150    5.60   14.93   -0.02   0.000   0.200   0.000    0.00
   0.200    5.82   15.46    0.32   0.000   0.200   0.000    0.00
   0.250    5.91   14.13    0.61   0.000   0.200   0.000    0.00
   0.300    5.74   14.87    0.31   0.000   0.200   0.000    0.00
   0.350    5.74   14.70    0.24   0.000   0.200   0.000    0.00
   0.400    5.48   11.14    0.16   0.000   0.200   0.000    0.00
   0.450    5.57   12.76    0.09   0.000   0.200   0.000    0.00
   0.500    5.67    9.84    0.21   0.000   0.200   0.000    0.00
   0.550    5.71   10.48    0.32   0.000   0.200   0.000    0.00
   0.600    5.77   11.19    0.14   0.000   0.200   0.000    0.00
   0.650    5.77    9.06    0.02   0.000   0.200   0.000    0.00
   0.700    5.55    9.76    0.30   0.000   0.200   0.000    0.00
   0.750    5.30    9.59    0.52   0.000   0.200   0.000    0.00
   0.800    5.47    7.90    0.42   0.000   0.200   0.000    0.00
   0.850    5.45    5.97    0.34   0.000   0.200   0.000    0.00
   0.900    5.31    6.13    0.40   0.000   0.200   0.000    0.00
   0.950    5.80    6.55    0.33   0.000   0.200   0.000    0.00
   1.000    5.82    7.82   -0.03   0.000   0.200   0.000    0.00
   1.050    5.57    8.63    0.07   0.000   0.200   0.000    0.00
   1.100    5.38    9.41    0.21   0.000   0.200   0.000    0.00
   1.150    5.43    5.39    0.23   0.000   0.200   0.000    0.00
   1.200    5.38    7.75    0.21   0.000   0.200   0.000    0.00
   1.250    5.44    4.84   -0.14   0.000   0.200   0.000    0.00
   1.300    5.36    5.45   -0.11   0.000   0.200   0.000    0.00
   1.350    5.47    6.85    0.03   0.000   0.200   0.000    0.00
   1.400    5.40    6.37    0.15   0.000   0.200   0.000    0.00
   1.450    5.41    8.88    0.17   0.000   0.200   0.000    0.00
   1.500    5.52    7.92    0.12   0.000   0.200   0.000    0.00
   1.550    5.49    6.18   -0.03   0.000   0.200   0.000    0.00
   1.600    5.48    5.79    0.09   0.000   0.200   0.000    0.00
   1.650    5.56    4.36    0.41   0.000   0.200   0.000    0.00
   1.700    5.86    3.61    0.71   0.000   0.200   0.000    0.00
   1.750    5.80    3.33    0.83   0.000   0.200   0.000    0.00
   1.800    5.62    3.23    0.71   0.000   0.200   0.000    0.00
   1.850    5.51    4.34    0.63   0.000   0.200   0.000    0.00
   1.900    5.37    5.89    0.63   0.000   0.200   0.000    0.00
   1.950    5.39    7.59    0.62   0.000   0.200   0.000    0.00
   2.000    5.44    7.35    0.59   0.000   0.200   0.000    0.00
   2.050    5.34   10.87    0.42   0.000   0.200   0.000    0.00
   2.100    5.26   10.67    0.41   0.000   0.200   0.000    0.00
   2.150    5.27   10.49    0.26   0.000   0.200   0.000    0.00
   2.200    5.41    7.19    0.16   0.000   0.200   0.000    0.00
   2.250    5.34    7.36    0.32   0.000   0.200   0.000    0.00
   2.300    5.35    7.74    0.42   0.000   0.200   0.000    0.00
   2.350    5.36    7.47    0.54   0.000   0.200   0.000    0.00
   2.400    5.09    7.05    0.26   0.000   0.200   0.000    0.00
   2.450    5.25    7.31    0.14   0.000   0.200   0.000    0.00
   2.500    5.29    7.44    0.28   0.000   0.200   0.000    0.00
   2.550    5.22    8.05    0.33   0.000   0.200   0.000    0.00
   2.600    4.87    8.80    0.11   0.000   0.200   0.000    0.00
   2.650    4.72   11.59    0.08   0.000   0.200   0.000    0.00
   2.700    4.72   11.89   -0.01   0.000   0.200   0.000    0.00
   2.750    4.80    8.28   -0.02   0.000   0.200   0.000    0.00
   2.800    4.67    9.30   -0.03   0.000   0.200   0.000    0.00
   2.850    4.42   11.48    0.08   0.000   0.200   0.000    0.00
   2.900    4.54   12.45    0.02   0.000   0.200   0.000    0.00
   2.950    4.74   12.37   -0.14   0.000   0.200   0.000    0.00
   3.000    4.52   10.26   -0.01   0.000   0.200   0.000    0.00
   3.050    4.42    9.44    0.06   0.000   0.200   0.000    0.00
   3.100    4.40   10.71   -0.10   0.000   0.200   0.000    0.00
   3.150    4.39    8.19    0.05   0.000   0.200   0.000    0.00
   3.200    4.35    9.07   -0.04   0.000   0.200   0.000    0.00
   3.250    4.24    7.05   -0.10   0.000   0.200   0.000    0.00
   3.300    3.93    7.08   -0.26   0.000   0.200   0.000    0.00
   3.350    3.94    6.77   -0.40   0.000   0.200   0.000    0.00
   3.400    4.12    7.18   -0.45   0.000   0.200   0.000    0.00
   3.450    4.36    4.30   -0.19   0.000   0.200   0.000    0.00
   3.500    4.49    2.60   -0.07   0.000   0.200   0.000    0.00
   3.550    4.65    3.98    0.14   0.000   0.200   0.000    0.00
   3.600    4.43    9.14    0.12   0.000   0.200   0.000    0.00
   3.650    4.55    9.38   -0.17   0.000   0.200   0.000    0.00
   3.700    4.52    8.22   -0.32   0.000   0.200   0.000    0.00
   3.750    4.45    6.17   -0.22   0.000   0.200   0.000    0.00
   3.800    4.18    7.54   -0.55   0.000   0.200   0.000    0.00
   3.850    4.19    6.93   -0.26   0.000   0.200   0.000    0.00
   3.900    4.03    4.91   -0.68   0.000   0.200   0.000    0.00
   3.950    4.06    6.96   -0.42   0.000   0.200   0.000    0.00
   4.000    4.02    6.23   -0.10   0.000   0.200   0.000    0.00
   4.050    3.83    4.44   -0.38   0.000   0.200   0.000    0.00
   4.100    3.91    6.19   -0.29   0.000   0.200   0.000    0.00
   4.150    3.77   10.53   -0.30   0.000   0.200   0.000    0.00
   4.200    3.72   10.74   -0.01   0.000   0.200   0.000    0.00
   4.250    3.63   14.05   -0.28   0.000   0.200   0.000    0.00
   4.300    3.97   11.46   -0.13   0.000   0.200   0.000    0.00
   4.350    3.92   10.43   -0.38   0.000   0.200   0.000    0.00
   4.400    3.67   13.28   -0.14   0.000   0.200   0.000    0.00
   4.450    3.73   13.43    0.03   0.000   0.200   0.000    0.00
   4.500    3.79    6.98   -0.06   0.000   0.200   0.000    0.00
   4.550    3.97    4.37    0.29   0.000   0.200   0.000    0.00
   4.600    3.57    2.87    0.29   0.000   0.200   0.000    0.00
   4.650    3.66    2.29    0.13   0.000   0.200   0.000    0.00
   4.700    3.81    2.74    0.28   0.000   0.200   0.000    0.00
   4.750    3.82    1.17    0.08   0.000   0.200   0.000    0.00
   4.800    3.73    1.98    0.19   0.000   0.200   0.000    0.00
   4.850    3.76    0.43    0.35   0.000   0.200   0.000    0.00
   4.900    3.87    2.07    0.30   0.000   0.200   0.000    0.00
   4.950    3.88    2.25   -0.07   0.000   0.200   0.000    0.00
   5.000    3.82    1.03   -0.05   0.000   0.200   0.000    0.00
   5.050    3.86   -2.88    0.06   0.000   0.200   0.000    0.00
   5.100    4.37   -8.23    0.16   0.000   0.200   0.000    0.00
   5.150    4.40   -6.71    0.03   0.000   0.200   0.000    0.00
   5.200    4.40   -8.87    0.07   0.000   0.200   0.000    0.00
   5.250    4.33   -5.93    0.28   0.000   0.200   0.000    0.00
   5.300    4.32   -2.10    0.15   0.000   0.200   0.000    0.00
   5.350    4.28   -0.02   -0.18   0.000   0.200   0.000    0.00
   5.400    4.44   -2.96   -0.45   0.000   0.200   0.000    0.00
   5.450    4.57    0.30   -0.38   0.000   0.200   0.000    0.00
   5.500    4.64   -2.04   -0.29   0.000   0.200   0.000    0.00
   5.550    4.47   -0.38   -0.38   0.000   0.200   0.000    0.00
   5.600    4.50    5.09   -0.15   0.000   0.200   0.000    0.00
   5.650    4.53    4.65   -0.21   0.000   0.200   0.000    0.00
   5.700    4.51    3.46   -0.36   0.000   0.200   0.000    0.00
   5.750    4.50   -1.25   -0.08   0.000   0.200   0.000    0.00
   5.800    4.45   -1.80   -0.04   0.000   0.200   0.000    0.00
   5.850    4.65    1.08    0.14   0.000   0.200   0.000    0.00
   5.900    4.89    1.75   -0.07   0.000   0.200   0.000    0.00
   5.950    4.72    3.24    0.04   0.000   0.200   0.000    0.00
   6.000    4.57    4.32    0.00   0.000   0.200   0.000    0.00
   6.050    4.50    6.75   -0.09   0.000   0.200   0.000    0.00
   6.100    4.58    3.03    0.03   0.000   0.200   0.000    0.00
   6.150    4.37    1.20    0.13   0.000   0.200   0.000    0.00
   6.200    4.56   -1.40    0.02   0.000   0.200   0.000    0.00
   6.250    4.57    0.69    0.08   0.000   0.200   0.000    0.00
   6.300    4.39   -1.09    0.07   0.000   0.200   0.000    0.00
   6.350    4.17   -2.85   -0.18   0.000   0.200   0.000    0.00
   6.400    3.95    0.31   -0.21   0.000   0.200   0.000    0.00
   6.450    3.88   -5.41   -0.47   0.000   0.200   0.000    0.00
   6.500    3.70   -6.36   -0.51   0.000   0.200   0.000    0.00
   6.550    3.65   -8.52   -0.58   0.000   0.200   0.000    0.00
   6.600    4.01   -9.04   -0.59   0.000   0.200   0.000    0.00
   6.650    4.11   -8.95   -0.82   0.000   0.200   0.000    0.00
   6.700    3.96  -10.00   -0.81   0.000   0.200   0.000    0.00
   6.750    3.84   -7.39   -0.94   0.000   0.200   0.000    0.00
   6.800    3.98   -8.92   -0.24   0.000   0.200   0.000    0.00
   6.850    3.82   -6.59   -0.24   0.000   0.200   0.000    0.00
   6.900    3.84  -11.98   -0.15   0.000   0.200   0.000    0.00
   6.950    3.64  -14.68   -0.30   0.000   0.200   0.000    0.00
   7.000    3.60  -11.84   -0.51   0.000   0.200   0.000    0.00
   7.050    3.29   -8.34   -0.72   0.000   0.200   0.000    0.00
   7.100    3.28   -4.99   -0.61   0.000   0.200   0.000    0.00
   7.150    3.41   -4.15   -0.42   0.000   0.200   0.000    0.00
   7.200    3.44   -2.93   -0.32   0.000   0.200   0.000    0.00
   7.250    3.59   -2.78   -0.34   0.000   0.200   0.000    0.00
   7.300    3.71    0.03   -0.43   0.000   0.200   0.000    0.00
   7.350    4.04   -3.89   -0.35   0.000   0.200   0.000    0.00
   7.400    3.78   -4.02   -0.30   0.000   0.200   0.000    0.00
   7.450    3.63   -0.87   -0.72   0.000   0.200   0.000    0.00
   7.500    3.47   -4.77   -0.72   0.000   0.200   0.000    0.00
   7.550    3.58   -6.36   -0.35   0.000   0.200   0.000    0.00
   7.600    3.85   -7.45   -0.09   0.000   0.200   0.000    0.00
   7.650    3.95   -2.58   -0.22   0.000   0.200   0.000    0.00
   7.700    4.07   -2.08    0.07   0.000   0.200   0.000    0.00
   7.750    4.23   -6.95    0.27   0.000   0.200   0.000    0.00
   7.800    4.17   -6.41    0.12   0.000   0.200   0.000    0.00
   7.850    4.21   -5.17    0.20   0.000   0.200   0.000    0.00
   7.900    3.96   -8.26    0.52   0.000   0.200   0.000    0.00
   7.950    4.05   -9.26    0.57   0.000   0.200   0.000    0.00
   8.000    3.91   -8.97    0.38   0.000   0.200   0.000    0.00
   8.050    3.93  -13.11    0.20   0.000   0.200   0.000    0.00
   8.100    3.62  -12.53    0.44   0.000   0.200   0.000    0.00
   8.150    3.75   -9.64    0.62   0.000   0.200   0.000    0.00
   8.200    3.85   -5.97    0.79   0.000   0.200   0.000    0.00
   8.250    3.75   -5.38    0.40   0.000   0.200   0.000    0.00
   8.300    3.88   -5.75    0.87   0.000   0.200   0.000    0.00
   8.350    3.76   -6.75    0.64   0.000   0.200   0.000    0.00
   8.400    3.94   -7.03    0.53   0.000   0.200   0.000    0.00
   8.450    3.91   -4.30    0.53   0.000   0.200   0.000    0.00
   8.500    4.03    0.63    0.62   0.000   0.200   0.000    0.00
   8.550    3.94    0.98    0.43   0.000   0.200   0.000    0.00
   8.600    4.01    1.55    0.29   0.000   0.200   0.000    0.00
   8.650    4.09    1.94    0.24   0.000   0.200   0.000    0.00
   8.700    4.20    3.88    0.39   0.000   0.200   0.000    0.00
   8.750    4.51    3.42    0.08   0.000   0.200   0.000    0.00
   8.800    4.38    6.09    0.04   0.000   0.200   0.000    0.00
   8.850    4.27    3.85   -0.29   0.000   0.200   0.000    0.00
   8.900    4.32   -3.39   -0.24   0.000   0.200   0.000    0.00
   8.950    4.51   -0.21   -0.12   0.000   0.200   0.000    0.00
   9.000    4.35   -3.60   -0.05   0.000   0.200   0.000    0.00
   9.050    4.25   -1.73    0.22   0.000   0.200   0.000    0.00
   9.100    4.25   -1.14    0.77   0.000   0.200   0.000    0.00
   9.150    4.13   -1.96    1.01   0.000   0.200   0.000    0.00
   9.200    4.00   -1.09    0.90   0.000   0.200   0.000    0.00
   9.250    4.12    0.66    0.70   0.000   0.200   0.000    0.00
   9.300    4.11   -1.14    0.52   0.000   0.200   0.000    0.00
   9.350    3.95   -1.23    0.65   0.000   0.200   0.000    0.00
   9.400    3.51    0.60    0.97   0.000   0.200   0.000    0.00
   9.450    3.71   -3.91    0.95   0.000   0.200   0.000    0.00
   9.500    3.69    0.45    0.86   0.000   0.200   0.000    0.00
   9.550    3.76    4.18    0.72   0.000   0.200   0.000    0.00
   9.600    3.69    0.63    0.53   0.000   0.200   0.000    0.00
   9.650    3.60   -1.32    0.72   0.000   0.200   0.000    0.00
   9.700    3.73   -6.57    0.61   0.000   0.200   0.000    0.00
   9.750    3.91   -5.12    0.70   0.000   0.200   0.000    0.00
   9.800    4.06   -4.03    0.66   0.000   0.200   0.000    0.00
   9.850    4.04   -1.37    0.74   0.000   0.200   0.000    0.00
   9.900    3.73   -1.75    0.66   0.000   0.200   0.000    0.00
   9.950    3.83   -2.66    0.90   0.000   0.200   0.000    0.00
  10.000    3.88   -2.10    0.49   0.000   0.200   0.000    0.00
  10.050    3.94   -0.51    0.51   0.000   0.200   0.000    0.00
  10.100    3.98    0.15    0.29   0.000   0.200   0.000    0.00
  10.150    3.98   -2.24    0.33   0.000   0.200   0.000    0.00
  10.200    4.07   -4.44    0.27   0.000   0.200   0.000    0.00
  10.250    4.12   -6.10   -0.08   0.000   0.200   0.000    0.00
  10.300    4.26   -5.79    0.05   0.000   0.200   0.000    0.00
  10.350    4.51   -4.37    0.15   0.000   0.200   0.000    0.00
  10.400    4.52   -3.22    0.08   0.000   0.200   0.000    0.00
  10.450    4.50   -0.99    0.01   0.000   0.200   0.000    0.00
  10.500    4.38   -2.43    0.35   0.000   0.200   0.000    0.00
  10.550    4.69   -2.31    0.20   0.000   0.200   0.000    0.00
  10.600    4.64   -5.52   -0.24   0.000   0.200   0.000    0.00
  10.650    4.80   -4.27   -0.37   0.000   0.200   0.000    0.00
  10.700    4.70   -3.46   -0.50   0.000   0.200   0.000    0.00
  10.750    4.96   -1.61   -0.29   0.000   0.200   0.000    0.00
  10.800    5.25   -2.78   -0.20   0.000   0.200   0.000    0.00
  10.850    4.97   -3.43   -0.36   0.000   0.200   0.000    0.00
  10.900    5.13   -1.92   -0.15   0.000   0.200   0.000    0.00
  10.950    5.25   -1.20    0.02   0.000   0.200   0.000    0.00
  11.000    4.85    1.57   -0.03   0.000   0.200   0.000    0.00
  11.050    5.17    4.56    0.13   0.000   0.200   0.000    0.00
  11.100    5.22    5.02    0.09   0.000   0.200   0.000    0.00
  11.150    5.22    7.48    0.15   0.000   0.200   0.000    0.00
  11.200    5.07    7.73   -0.34   0.000   0.200   0.000    0.00
  11.250    5.23    6.43   -0.33   0.000   0.200   0.000    0.00
  11.300    5.44    6.07   -0.23   0.000   0.200   0.000    0.00
  11.350    5.29   -0.52   -0.50   0.000   0.200   0.000    0.00
  11.400    5.32   -2.10   -0.36   0.000   0.200   0.000    0.00
  11.450    5.35    0.73   -0.17   0.000   0.200   0.000    0.00
  11.500    5.33    1.84   -0.24   0.000   0.200   0.000    0.00
  11.550    5.17    1.54   -0.08   0.000   0.200   0.000    0.00
  11.600    5.16   -1.00   -0.15   0.000   0.200   0.000    0.00
  11.650    5.12    0.98    0.04   0.000   0.200   0.000    0.00
  11.700    5.60    0.44    0.23   0.000   0.200   0.000    0.00
  11.750    5.52    1.43    0.30   0.000   0.200   0.000    0.00
  11.800    5.26    3.25   -0.17   0.000   0.200   0.000    0.00
  11.850    5.20    5.60   -0.07   0.000   0.200   0.000    0.00
  11.900    4.91    7.91   -0.30   0.000   0.200   0.000    0.00
  11.950    5.05    8.32   -0.40   0.000   0.200   0.000    0.00
  12.000    5.11    9.26   -0.34   0.000   0.200   0.000    0.00
  12.050    5.07   10.51   -0.52   0.000   0.200   0.000    0.00
  12.100    5.18   11.43   -0.77   0.000   0.200   0.000    0.00
  12.150    5.20    9.18   -0.30   0.000   0.200   0.000    0.00
  12.200    4.97    6.40   -0.30   0.000   0.200   0.000    0.00
  12.250    4.95    7.13   -0.04   0.000   0.200   0.000    0.00
  12.300    5.03   10.37    0.21   0.000   0.200   0.000    0.00
  12.350    5.05    8.15   -0.07   0.000   0.200   0.000    0.00
  12.400    5.13    6.46    0.03   0.000   0.200   0.000    0.00
  12.450    5.03    3.28   -0.13   0.000   0.200   0.000    0.00
  12.500    4.89    3.96   -0.14   0.000   0.200   0.000    0.00
  12.550    4.69    0.93   -0.50   0.000   0.200   0.000    0.00
  12.600    4.74   -0.01   -0.36   0.000   0.200   0.000    0.00
  12.650    4.69    1.24   -0.23   0.000   0.200   0.000    0.00
  12.700    4.64   -1.10   -0.25   0.000   0.200   0.000    0.00
  12.750    5.00    0.55   -0.17   0.000   0.200   0.000    0.00
  12.800    5.15    1.95   -0.26   0.000   0.200   0.000    0.00
  12.850    5.15   -0.84   -0.16   0.000   0.200   0.000    0.00
  12.900    5.28    0.59    0.09   0.000   0.200   0.000    0.00
  12.950    4.97    2.13    0.13   0.000   0.200   0.000    0.00
  13.000    4.89    1.87    0.20   0.000   0.200   0.000    0.00
  13.050    4.92    3.67   -0.03   0.000   0.200   0.000    0.00
  13.100    5.03    3.21   -0.04   0.000   0.200   0.000    0.00
  13.150    5.04    1.17   -0.25   0.000   0.200   0.000    0.00
  13.200    5.02    0.06   -0.06   0.000   0.200   0.000    0.00
  13.250    5.12   -3.42    0.10   0.000   0.200   0.000    0.00
  13.300    5.21   -1.87    0.19   0.000   0.200   0.000    0.00
  13.350    5.23    0.23    0.17   0.000   0.200   0.000    0.00
  13.400    5.48    1.03    0.17   0.000   0.200   0.000    0.00
  13.450    5.44    2.17   -0.07   0.000   0.200   0.000    0.00
  13.500    5.70    3.99   -0.04   0.000   0.200   0.000    0.00
  13.550    5.19    5.84   -0.19   0.000   0.200   0.000    0.00
  13.600    4.96    7.12   -0.23   0.000   0.200   0.000    0.00
  13.650    4.96    7.78    0.04   0.000   0.200   0.000    0.00
  13.700    5.04    7.27    0.03   0.000   0.200   0.000    0.00
  13.750    5.25    6.42   -0.04   0.000   0.200   0.000    0.00
  13.800    5.33    2.32    0.05   0.000   0.200   0.000    0.00
  13.850    5.39    7.02   -0.07   0.000   0.200   0.000    0.00
  13.900    5.23    9.56    0.13   0.000   0.200   0.000    0.00
  13.950    5.08   10.47    0.13   0.000   0.200   0.000    0.00
  14.000    5.03   11.29   -0.01   0.000   0.200   0.000    0.00
  14.050    4.94    9.17    0.00   0.000   0.200   0.000    0.00
  14.100    4.59   13.30   -0.08   0.000   0.200   0.000    0.00
  14.150    4.68   16.92   -0.04   0.000   0.200   0.000    0.00
  14.200    4.75   12.56   -0.06   0.000   0.200   0.000    0.00
  14.250    4.67    7.77   -0.41   0.000   0.200   0.000    0.00
  14.300    4.68    8.45   -0.47   0.000   0.200   0.000    0.00
  14.350    4.72    4.02   -0.35   0.000   0.200   0.000    0.00
  14.400    4.73    1.88   -0.29   0.000   0.200   0.000    0.00
  14.450    4.78    4.83   -0.20   0.000   0.200   0.000    0.00
  14.500    4.92    5.36   -0.23   0.000   0.200   0.000    0.00
  14.550    5.15    3.93   -0.17   0.000   0.200   0.000    0.00
  14.600    4.98    2.44   -0.39   0.000   0.200   0.000    0.00
  14.650    4.99    4.56   -0.38   0.000   0.200   0.000    0.00
  14.700    5.06    4.52   -0.62   0.000   0.200   0.000    0.00
  14.750    4.95    2.00   -0.69   0.000   0.200   0.000    0.00
  14.800    4.80    2.48   -0.70   0.000   0.200   0.000    0.00
  14.850    4.87    5.33   -0.63   0.000   0.200   0.000    0.00
  14.900    4.60    9.41   -0.40   0.000   0.200   0.000    0.00
  14.950    4.41    9.36   -0.59   0.000   0.200   0.000    0.00
  15.000    4.57   10.64   -0.94   0.000   0.200   0.000    0.00
  15.050    4.53    7.68   -0.97   0.000   0.200   0.000    0.00
  15.100    4.58    3.64   -1.02   0.000   0.200   0.000    0.00
  15.150    4.80    5.11   -0.80   0.000   0.200   0.000    0.00
  15.200    4.59    5.15   -1.15   0.000   0.200   0.000    0.00
  15.250    4.42    2.47   -1.07   0.000   0.200   0.000    0.00
  15.300    4.47    0.22   -0.77   0.000   0.200   0.000    0.00
  15.350    4.92   -1.31   -0.35   0.000   0.200   0.000    0.00
  15.400    4.93   -3.64   -0.37   0.000   0.200   0.000    0.00
  15.450    5.14   -3.09   -0.53   0.000   0.200   0.000    0.00
  15.500    5.22   -0.87   -0.61   0.000   0.200   0.000    0.00
  15.550    5.22   -1.91   -0.88   0.000   0.200   0.000    0.00
  15.600    5.03   -3.65   -0.73   0.000   0.200   0.000    0.00
  15.650    4.90   -4.29   -0.82   0.000   0.200   0.000    0.00
  15.700    5.19   -2.85   -0.50   0.000   0.200   0.000    0.00
  15.750    5.23   -4.71   -0.58   0.000   0.200   0.000    0.00
  15.800    5.08   -7.23   -0.50   0.000   0.200   0.000    0.00
  15.850    5.22   -7.42   -0.17   0.000   0.200   0.000    0.00
  15.900    4.96  -10.63   -0.41   0.000   0.200   0.000    0.00
  15.950    5.13  -12.22   -0.22   0.000   0.200   0.000    0.00
  16.000    5.11  -13.48   -0.42   0.000   0.200   0.000    0.00
  16.050    4.94  -13.34   -0.58   0.000   0.200   0.000    0.00
  16.100    4.99  -14.24   -0.38   0.000   0.200   0.000    0.00
  16.150    4.83  -14.58   -0.53   0.000   0.200   0.000    0.00
  16.200    4.97  -13.61   -0.07   0.000   0.200   0.000    0.00
  16.250    5.01  -14.23    0.07   0.000   0.200   0.000    0.00
  16.300    5.21  -13.97    0.04   0.000   0.200   0.000    0.00
  16.350    5.31  -12.86   -0.13   0.000   0.200   0.000    0.00
  16.400    5.41  -11.60   -0.04   0.000   0.200   0.000    0.00
  16.450    5.54  -13.11    0.18   0.000   0.200   0.000    0.00
  16.500    5.27  -12.07    0.07   0.000   0.200   0.000    0.00
  16.550    5.19  -12.38   -0.06   0.000   0.200   0.000    0.00
  16.600    5.05  -11.84    0.03   0.000   0.200   0.000    0.00
  16.650    5.10  -10.44    0.19   0.000   0.200   0.000    0.00
  16.700    5.08  -10.92    0.24   0.000   0.200   0.000    0.00
  16.750    4.87   -9.47   -0.04   0.000   0.200   0.000    0.00
  16.800    4.73   -8.65   -0.21   0.000   0.200   0.000    0.00
  16.850    4.75   -9.70   -0.24   0.000   0.200   0.000    0.00
  16.900    4.83   -6.90   -0.13   0.000   0.200   0.000    0.00
  16.950    5.17   -8.76    0.05   0.000   0.200   0.000    0.00
  17.000    5.32  -11.49   -0.19   0.000   0.200   0.000    0.00
  17.050    5.28  -11.39   -0.11   0.000   0.200   0.000    0.00
  17.100    5.39  -13.73   -0.03   0.000   0.200   0.000    0.00
  17.150    5.04  -14.89   -0.02   0.000   0.200   0.000    0.00
  17.200    4.84  -14.97    0.27   0.000   0.200   0.000    0.00
  17.250    4.80  -11.68    0.40   0.000   0.200   0.000    0.00
  17.300    4.93  -13.14    0.31   0.000   0.200   0.000    0.00
  17.350    4.69  -12.01    0.35   0.000   0.200   0.000    0.00
  17.400    4.50  -12.17    0.34   0.000   0.200   0.000    0.00
  17.450    4.35  -13.94    0.21   0.000   0.200   0.000    0.00
  17.500    4.82  -12.64    0.27   0.000   0.200   0.000    0.00
  17.550    4.85  -15.38    0.17   0.000   0.200   0.000    0.00
  17.600    4.71   -9.94    0.22   0.000   0.200   0.000    0.00
  17.650    4.51  -10.27    0.02   0.000   0.200   0.000    0.00
  17.700    4.46   -9.71    0.38   0.000   0.200   0.000    0.00
  17.750    4.44   -6.85    0.69   0.000   0.200   0.000    0.00
  17.800    4.34   -5.28    0.69   0.000   0.200   0.000    0.00
  17.850    4.37   -5.64    0.72   0.000   0.200   0.000    0.00
  17.900    4.71   -5.44    0.93   0.000   0.200   0.000    0.00
  17.950    4.80   -6.61    0.91   0.000   0.200   0.000    0.00
  18.000    4.79   -7.59    0.69   0.000   0.200   0.000    0.00
  18.050    4.69   -7.07    0.69   0.000   0.200   0.000    0.00
  18.100    4.64   -8.94    0.51   0.000   0.200   0.000    0.00
  18.150    4.71   -7.27    0.63   0.000   0.200   0.000    0.00
  18.200    4.74   -9.15    0.64   0.000   0.200   0.000    0.00
  18.250    4.83   -8.65    0.38   0.000   0.200   0.000    0.00
  18.300    5.12  -10.12    0.24   0.000   0.200   0.000    0.00
  18.350    4.99  -13.71    0.36   0.000   0.200   0.000    0.00
  18.400    4.96  -14.85    0.76   0.000   0.200   0.000    0.00
  18.450    5.16  -10.94    0.69   0.000   0.200   0.000    0.00
  18.500    5.01  -11.90    0.64   0.000   0.200   0.000    0.00
  18.550    5.23  -12.50    0.59   0.000   0.200   0.000    0.00
  18.600    5.42  -10.38    0.53   0.000   0.200   0.000    0.00
  18.650    5.49   -9.44    0.85   0.000   0.200   0.000    0.00
  18.700    5.56  -12.50    1.15   0.000   0.200   0.000    0.00
  18.750    5.32  -13.19    0.91   0.000   0.200   0.000    0.00
  18.800    5.32  -15.06    0.80   0.000   0.200   0.000    0.00
  18.850    5.29  -16.07    0.86   0.000   0.200   0.000    0.00
  18.900    5.37  -19.62    0.86   0.000   0.200   0.000    0.00
  18.950    5.20  -16.24    1.07   0.000   0.200   0.000    0.00
  19.000    5.07  -13.47    1.14   0.000   0.200   0.000    0.00
  19.050    5.25   -9.87    1.01   0.000   0.200   0.000    0.00
  19.100    5.53   -9.87    1.28   0.000   0.200   0.000    0.00
  19.150    5.19   -6.84    1.16   0.000   0.200   0.000    0.00
  19.200    5.51   -6.50    1.29   0.000   0.200   0.000    0.00
  19.250    5.55   -7.39    1.21   0.000   0.200   0.000    0.00
  19.300    5.38   -6.21    1.12   0.000   0.200   0.000    0.00
  19.350    5.34   -4.70    0.96   0.000   0.200   0.000    0.00
  19.400    5.17   -3.86    0.90   0.000   0.200   0.000    0.00
  19.450    5.23   -3.38    0.96   0.000   0.200   0.000    0.00
  19.500    5.11   -6.78    1.07   0.000   0.200   0.000    0.00
  19.550    5.21   -8.37    0.89   0.000   0.200   0.000    0.00
  19.600    5.33   -3.59    0.94   0.000   0.200   0.000    0.00
  19.650    5.19   -1.59    0.66   0.000   0.200   0.000    0.00
  19.700    5.17   -2.76    0.68   0.000   0.200   0.000    0.00
  19.750    5.18   -2.70    0.87   0.000   0.200   0.000    0.00
  19.800    5.20   -2.56    1.06   0.000   0.200   0.000    0.00
  19.850    5.40   -5.47    1.21   0.000   0.200   0.000    0.00
  19.900    5.21   -3.86    1.09   0.000   0.200   0.000    0.00
  19.950    5.55   -2.82    1.23   0.000   0.200   0.000    0.00
  20.000    5.55   -2.94    1.17   0.000   0.200   0.000    0.00
  20.050    5.62   -2.63    1.03   0.000   0.200   0.000    0.00
  20.100    5.70   -3.43    0.62   0.000   0.200   0.000    0.00
  20.150    5.36   -4.10    0.53   0.000   0.200   0.000    0.00
  20.200    5.30   -2.75    0.56   0.000   0.200   0.000    0.00
  20.250    5.34   -6.17    0.70   0.000   0.200   0.000    0.00
  20.300    5.28   -7.04    0.67   0.000   0.200   0.000    0.00
  20.350    5.24   -7.29    0.77   0.000   0.200   0.000    0.00
  20.400    5.38   -6.04    0.81   0.000   0.200   0.000    0.00
  20.450    5.45   -7.22    0.86   0.000   0.200   0.000    0.00
  20.500    5.24   -6.33    0.90   0.000   0.200   0.000    0.00
  20.550    5.43   -8.10    0.75   0.000   0.200   0.000    0.00
  20.600    5.58   -7.19    0.30   0.000   0.200   0.000    0.00
  20.650    5.55   -6.32    0.32   0.000   0.200   0.000    0.00
  20.700    5.74   -5.62    0.15   0.000   0.200   0.000    0.00
  20.750    5.70   -4.65    0.38   0.000   0.200   0.000    0.00
  20.800    5.83   -6.92   -0.01   0.000   0.200   0.000    0.00
  20.850    5.95   -6.24   -0.19   0.000   0.200   0.000    0.00
  20.900    5.99   -5.22    0.03   0.000   0.200   0.000    0.00
  20.950    5.94   -3.48    0.18   0.000   0.200   0.000    0.00
  21.000    6.21   -2.61    0.00   0.000   0.200   0.000    0.00
  21.050    6.19   -3.59   -0.10   0.000   0.200   0.000    0.00
  21.100    6.16   -1.75   -0.13   0.000   0.200   0.000    0.00
  21.150    6.26   -2.38   -0.22   0.000   0.200   0.000    0.00
  21.200    6.31   -2.86   -0.07   0.000   0.200   0.000    0.00
  21.250    6.52   -3.40   -0.11   0.000   0.200   0.000    0.00
  21.300    6.44   -3.28    0.03   0.000   0.200   0.000    0.00
  21.350    6.52   -6.55    0.29   0.000   0.200   0.000    0.00
  21.400    6.78   -7.71    0.25   0.000   0.200   0.000    0.00
  21.450    6.62   -8.52    0.13   0.000   0.200   0.000    0.00
  21.500    6.75   -6.76    0.18   0.000   0.200   0.000    0.00
  21.550    6.44   -7.05    0.02   0.000   0.200   0.000    0.00
  21.600    6.56   -5.82    0.21   0.000   0.200   0.000    0.00
  21.650    6.70   -5.46    0.24   0.000   0.200   0.000    0.00
  21.700    6.50   -5.98    0.36   0.000   0.200   0.000    0.00
  21.750    6.20   -7.64    0.46   0.000   0.200   0.000    0.00
  21.800    5.99   -8.75    0.63   0.000   0.200   0.000    0.00
  21.850    5.91  -10.66    0.65   0.000   0.200   0.000    0.00
  21.900    5.96  -10.70    0.44   0.000   0.200   0.000    0.00
  21.950    5.93   -9.46    0.60   0.000   0.200   0.000    0.00
  22.000    5.93   -9.43    0.77   0.000   0.200   0.000    0.00
  22.050    6.01   -9.93    0.60   0.000   0.200   0.000    0.00
  22.100    6.02   -9.51    0.51   0.000   0.200   0.000    0.00
  22.150    6.08   -8.82    0.70   0.000   0.200   0.000    0.00
  22.200    6.18   -6.92    0.66   0.000   0.200   0.000    0.00
  22.250    6.07   -6.73    0.41   0.000   0.200   0.000    0.00
  22.300    6.15   -6.72    0.50   0.000   0.200   0.000    0.00
  22.350    6.23   -3.87    0.10   0.000   0.200   0.000    0.00