! This hub-height wind-speed file was generated by TurbSim (v1.06.00, 21-Sep-2012) on 16-Jun-2018 at 18:37:05.
!
! The requested statistics for this data were:
!    Mean Total Wind Speed =    9.000 m/s
!    Turbulence Intensity  =   19.211%
!
!   Time  HorSpd  WndDir  VerSpd  HorShr  VerShr  LnVShr  GstSpd
!  (sec)   (m/s)   (deg)   (m/s)     (-)     (-)     (-)   (m/s)
   0.000    6.97  -19.15   -0.21   0.000   0.200   0.000    0.00
   0.050    6.88  -22.20    0.00   0.000   0.200   0.000    0.00
   0.100    6.55  -17.50    0.47   0.000   0.200   0.000    0.00
   0.150    6.71  -18.80    0.25   0.000   0.200   0.000    0.00
   0.200    6.66  -19.63   -0.11   0.000   0.200   0.000    0.00
   0.250    6.51  -19.53    0.12   0.000   0.200   0.000    0.00
   0.300    6.73  -18.20    0.13   0.000   0.200   0.000    0.00
   0.350    6.87  -16.03    0.39   0.000   0.200   0.000    0.00
   0.400    6.56  -16.01    0.28   0.000   0.200   0.000    0.00
   0.450    6.23  -16.76    0.55   0.000   0.200   0.000    0.00
   0.500    6.05  -18.89    0.44   0.000   0.200   0.000    0.00
   0.550    6.56  -16.81    0.23   0.000   0.200   0.000    0.00
   0.600    6.62  -17.19   -0.26   0.000   0.200   0.000    0.00
   0.650    6.51  -15.05   -0.20   0.000   0.200   0.000    0.00
   0.700    6.88  -16.67   -0.04   0.000   0.200   0.000    0.00
   0.750    7.31  -15.10   -0.25   0.000   0.200   0.000    0.00
   0.800    7.15  -13.31   -0.17   0.000   0.200   0.000    0.00
   0.850    7.34  -14.59    0.27   0.000   0.200   0.000    0.00
   0.900    7.37  -13.77    0.33   0.000   0.200   0.000    0.00
   0.950    7.57  -14.73   -0.09   0.000   0.200   0.000    0.00
   1.000    7.46  -12.07   -0.60   0.000   0.200   0.000    0.00
   1.050    7.52  -13.78   -0.26   0.000   0.200   0.000    0.00
   1.100    7.38  -13.92   -0.13   0.000   0.200   0.000    0.00
   1.150    7.09  -13.96    0.22   0.000   0.200   0.000    0.00
   1.200    7.22  -12.99    0.12   0.000   0.200   0.000    0.00
   1.250    7.35  -16.57    0.83   0.000   0.200   0.000    0.00
   1.300    7.29  -19.57    1.08   0.000   0.200   0.000    0.00
   1.350    7.20  -17.71    1.22   0.000   0.200   0.000    0.00
   1.400    7.10  -18.46    1.31   0.000   0.200   0.000    0.00
   1.450    6.81  -18.86    1.44   0.000   0.200   0.000    0.00
   1.500    6.85  -17.96    1.61   0.000   0.200   0.000    0.00
   1.550    7.24  -19.11    1.90   0.000   0.200   0.000    0.00
   1.600    7.03  -14.82    2.01   0.000   0.200   0.000    0.00
   1.650    6.48  -13.02    1.57   0.000   0.200   0.000    0.00
   1.700    6.55  -14.58    1.17   0.000   0.200   0.000    0.00
   1.750    6.68  -10.80    1.13   0.000   0.200   0.000    0.00
   1.800    6.81  -11.54    0.65   0.000   0.200   0.000    0.00
   1.850    6.86  -11.41    0.45   0.000   0.200   0.000    0.00
   1.900    6.78  -12.61    0.62   0.000   0.200   0.000    0.00
   1.950    6.40   -9.59    0.99   0.000   0.200   0.000    0.00
   2.000    6.15  -11.58    0.86   0.000   0.200   0.000    0.00
   2.050    6.40   -9.56    0.60   0.000   0.200   0.000    0.00
   2.100    6.54   -5.59    0.48   0.000   0.200   0.000    0.00
   2.150    6.50   -2.21    0.54   0.000   0.200   0.000    0.00
   2.200    6.72   -1.40    0.37   0.000   0.200   0.000    0.00
   2.250    6.42   -4.53    0.72   0.000   0.200   0.000    0.00
   2.300    6.79   -3.36    0.53   0.000   0.200   0.000    0.00
   2.350    7.09   -3.08   -0.01   0.000   0.200   0.000    0.00
   2.400    7.21   -3.45    0.22   0.000   0.200   0.000    0.00
   2.450    6.85   -3.45    0.53   0.000   0.200   0.000    0.00
   2.500    6.44   -2.12    1.14   0.000   0.200   0.000    0.00
   2.550    6.60   -2.98    0.99   0.000   0.200   0.000    0.00
   2.600    6.14   -0.99    1.07   0.000   0.200   0.000    0.00
   2.650    6.54   -3.73    0.99   0.000   0.200   0.000    0.00
   2.700    6.34   -0.48    0.93   0.000   0.200   0.000    0.00
   2.750    6.41   -0.91    1.24   0.000   0.200   0.000    0.00
   2.800    6.25   -1.36    1.63   0.000   0.200   0.000    0.00
   2.850    6.03    0.19    1.84   0.000   0.200   0.000    0.00
   2.900    6.11    0.41    2.36   0.000   0.200   0.000    0.00
   2.950    6.01   -0.35    2.00   0.000   0.200   0.000    0.00
   3.000    6.02   -0.17    2.16   0.000   0.200   0.000    0.00
   3.050    5.98    0.09    1.85   0.000   0.200   0.000    0.00
   3.100    6.30    0.60    1.69   0.000   0.200   0.000    0.00
   3.150    6.65   -1.76    2.00   0.000   0.200   0.000    0.00
   3.200    6.30   -3.01    1.71   0.000   0.200   0.000    0.00
   3.250    6.00   -1.71    1.28   0.000   0.200   0.000    0.00
   3.300    5.94   -6.00    1.08   0.000   0.200   0.000    0.00
   3.350    5.71   -6.60    0.61   0.000   0.200   0.000    0.00
   3.400    5.36   -2.66    0.14   0.000   0.200   0.000    0.00
   3.450    5.05    0.64    0.13   0.000   0.200   0.000    0.00
   3.500    4.93   -3.01    0.66   0.000   0.200   0.000    0.00
   3.550    5.31   -6.58    0.66   0.000   0.200   0.000    0.00
   3.600    5.32   -6.50    0.69   0.000   0.200   0.000    0.00
   3.650    5.22    0.08    0.58   0.000   0.200   0.000    0.00
   3.700    5.51   -0.49    0.49   0.000   0.200   0.000    0.00
   3.750    5.73   -0.04    0.33   0.000   0.200   0.000    0.00
   3.800    5.71    1.93    0.18   0.000   0.200   0.000    0.00
   3.850    5.93    1.45    0.23   0.000   0.200   0.000    0.00
   3.900    5.92   -1.08   -0.14   0.000   0.200   0.000    0.00
   3.950    5.49   -2.73    0.11   0.000   0.200   0.000    0.00
   4.000    5.17   -2.23    0.14   0.000   0.200   0.000    0.00
   4.050    5.77   -6.54   -0.19   0.000   0.200   0.000    0.00
   4.100    5.88   -3.60   -0.42   0.000   0.200   0.000    0.00
   4.150    5.70   -2.98   -0.44   0.000   0.200   0.000    0.00
   4.200    5.41   -6.20    0.18   0.000   0.200   0.000    0.00
   4.250    5.85   -5.86    0.27   0.000   0.200   0.000    0.00
   4.300    5.77   -2.92    0.47   0.000   0.200   0.000    0.00
   4.350    5.69   -1.56    0.12   0.000   0.200   0.000    0.00
   4.400    5.89    0.73    0.02   0.000   0.200   0.000    0.00
   4.450    6.06    2.87   -0.47   0.000   0.200   0.000    0.00
   4.500    5.87    1.56   -0.16   0.000   0.200   0.000    0.00
   4.550    5.76    0.64    0.36   0.000   0.200   0.000    0.00
   4.600    5.77   -0.60    0.22   0.000   0.200   0.000    0.00
   4.650    5.67    2.78    0.21   0.000   0.200   0.000    0.00
   4.700    5.89    6.20    0.50   0.000   0.200   0.000    0.00
   4.750    5.88    8.73    0.67   0.000   0.200   0.000    0.00
   4.800    6.11    6.53    0.87   0.000   0.200   0.000    0.00
   4.850    6.11    4.89    1.13   0.000   0.200   0.000    0.00
   4.900    6.15    4.45    0.86   0.000   0.200   0.000    0.00
   4.950    5.93    1.85    1.03   0.000   0.200   0.000    0.00
   5.000    5.72   -0.24    1.16   0.000   0.200   0.000    0.00
   5.050    6.44   -4.53    0.61   0.000   0.200   0.000    0.00
   5.100    6.22   -6.23    0.70   0.000   0.200   0.000    0.00
   5.150    6.24   -5.38    0.56   0.000   0.200   0.000    0.00
   5.200    5.91   -9.97   -0.17   0.000   0.200   0.000    0.00
   5.250    5.94  -11.44   -0.06   0.000   0.200   0.000    0.00
   5.300    5.89   -7.85    0.32   0.000   0.200   0.000    0.00
   5.350    6.04   -6.56    0.57   0.000   0.200   0.000    0.00
   5.400    6.16   -9.07    0.24   0.000   0.200   0.000    0.00
   5.450    5.98  -12.08    0.10   0.000   0.200   0.000    0.00
   5.500    5.94  -13.25    0.71   0.000   0.200   0.000    0.00
   5.550    6.00   -7.12    0.59   0.000   0.200   0.000    0.00
   5.600    6.20   -9.88    0.60   0.000   0.200   0.000    0.00
   5.650    6.25   -8.82    0.91   0.000   0.200   0.000    0.00
   5.700    6.54   -7.25    1.60   0.000   0.200   0.000    0.00
   5.750    6.89   -6.96    1.42   0.000   0.200   0.000    0.00
   5.800    6.35   -9.27    1.70   0.000   0.200   0.000    0.00
   5.850    6.15  -12.76    1.19   0.000   0.200   0.000    0.00
   5.900    6.25  -11.53    1.15   0.000   0.200   0.000    0.00
   5.950    6.22  -12.91    1.62   0.000   0.200   0.000    0.00
   6.000    6.22  -11.64    1.40   0.000   0.200   0.000    0.00
   6.050    5.75  -10.23    1.26   0.000   0.200   0.000    0.00
   6.100    5.70  -12.82    1.82   0.000   0.200   0.000    0.00
   6.150    6.11  -10.11    1.49   0.000   0.200   0.000    0.00
   6.200    6.08  -13.16    1.12   0.000   0.200   0.000    0.00
   6.250    5.61  -10.30    1.18   0.000   0.200   0.000    0.00
   6.300    5.75  -13.71    1.32   0.000   0.200   0.000    0.00
   6.350    5.63  -12.32    0.87   0.000   0.200   0.000    0.00
   6.400    5.12  -14.69    0.67   0.000   0.200   0.000    0.00
   6.450    5.22   -9.57    0.57   0.000   0.200   0.000    0.00
   6.500    5.13  -10.17   -0.22   0.000   0.200   0.000    0.00
   6.550    5.18   -9.52   -0.71   0.000   0.200   0.000    0.00
   6.600    5.07   -8.35   -0.44   0.000   0.200   0.000    0.00
   6.650    4.84   -5.02    0.10   0.000   0.200   0.000    0.00
   6.700    5.12   -7.40   -0.24   0.000   0.200   0.000    0.00
   6.750    5.21   -9.49   -0.36   0.000   0.200   0.000    0.00
   6.800    5.33   -9.74    0.57   0.000   0.200   0.000    0.00
   6.850    5.39  -14.46    0.38   0.000   0.200   0.000    0.00
   6.900    5.29  -14.18    0.32   0.000   0.200   0.000    0.00
   6.950    5.41  -14.99    0.20   0.000   0.200   0.000    0.00
   7.000    5.50  -14.25    0.21   0.000   0.200   0.000    0.00
   7.050    5.06   -7.16    0.59   0.000   0.200   0.000    0.00
   7.100    5.13   -8.67    0.44   0.000   0.200   0.000    0.00
   7.150    4.85  -13.08   -0.12   0.000   0.200   0.000    0.00
   7.200    5.02  -17.76   -0.45   0.000   0.200   0.000    0.00
   7.250    5.15  -15.57   -0.20   0.000   0.200   0.000    0.00
   7.300    5.12  -14.88   -0.30   0.000   0.200   0.000    0.00
   7.350    5.45  -10.80   -0.25   0.000   0.200   0.000    0.00
   7.400    5.11  -11.24   -0.30   0.000   0.200   0.000    0.00
   7.450    4.72  -13.24    0.05   0.000   0.200   0.000    0.00
   7.500    4.26  -13.18    0.04   0.000   0.200   0.000    0.00
   7.550    4.39  -12.82    0.19   0.000   0.200   0.000    0.00
   7.600    4.41  -12.11    0.03   0.000   0.200   0.000    0.00
   7.650    4.31  -10.28   -0.52   0.000   0.200   0.000    0.00
   7.700    4.60  -10.43   -0.34   0.000   0.200   0.000    0.00
   7.750    4.71  -12.21   -0.56   0.000   0.200   0.000    0.00
   7.800    4.24  -10.74   -0.32   0.000   0.200   0.000    0.00
   7.850    4.15   -9.29    0.16   0.000   0.200   0.000    0.00
   7.900    4.07  -11.97    0.26   0.000   0.200   0.000    0.00
   7.950    3.72   -8.50    0.67   0.000   0.200   0.000    0.00
   8.000    3.53   -8.64    0.05   0.000   0.200   0.000    0.00
   8.050    3.81  -10.34   -0.16   0.000   0.200   0.000    0.00
   8.100    3.86   -8.51   -0.40   0.000   0.200   0.000    0.00
   8.150    4.34  -17.68   -0.72   0.000   0.200   0.000    0.00
   8.200    4.28  -12.33   -0.91   0.000   0.200   0.000    0.00
   8.250    4.41  -12.91   -0.73   0.000   0.200   0.000    0.00
   8.300    4.32  -11.33   -0.57   0.000   0.200   0.000    0.00
   8.350    4.33  -11.93   -0.75   0.000   0.200   0.000    0.00
   8.400    4.87  -16.55   -0.39   0.000   0.200   0.000    0.00
   8.450    4.48  -17.30   -0.53   0.000   0.200   0.000    0.00
   8.500    4.56  -19.70   -0.09   0.000   0.200   0.000    0.00
   8.550    4.89  -17.79    0.52   0.000   0.200   0.000    0.00
   8.600    5.05  -11.65    0.43   0.000   0.200   0.000    0.00
   8.650    5.05  -11.02   -0.46   0.000   0.200   0.000    0.00
   8.700    5.33   -7.89   -0.65   0.000   0.200   0.000    0.00
   8.750    5.03   -8.26    0.01   0.000   0.200   0.000    0.00
   8.800    5.32   -9.27   -0.31   0.000   0.200   0.000    0.00
   8.850    5.37   -8.41   -0.01   0.000   0.200   0.000    0.00
   8.900    5.60   -4.68   -0.59   0.000   0.200   0.000    0.00
   8.950    5.58   -1.94   -0.56   0.000   0.200   0.000    0.00
   9.000    5.70   -4.38   -0.94   0.000   0.200   0.000    0.00
   9.050    5.83   -1.85   -1.11   0.000   0.200   0.000    0.00
   9.100    5.66    0.18   -0.92   0.000   0.200   0.000    0.00
   9.150    5.60   -3.00   -0.73   0.000   0.200   0.000    0.00
   9.200    5.85   -7.86   -1.26   0.000   0.200   0.000    0.00
   9.250    5.84   -9.43   -0.85   0.000   0.200   0.000    0.00
   9.300    5.99  -10.26   -0.80   0.000   0.200   0.000    0.00
   9.350    6.08   -7.61   -1.57   0.000   0.200   0.000    0.00
   9.400    5.95  -10.72   -1.67   0.000   0.200   0.000    0.00
   9.450    5.88   -7.31   -1.51   0.000   0.200   0.000    0.00
   9.500    5.88   -4.11   -1.52   0.000   0.200   0.000    0.00
   9.550    6.41   -7.66   -0.95   0.000   0.200   0.000    0.00
   9.600    6.29  -12.81   -0.89   0.000   0.200   0.000    0.00
   9.650    6.02   -7.71   -0.90   0.000   0.200   0.000    0.00
   9.700    5.85   -8.00   -0.68   0.000   0.200   0.000    0.00
   9.750    5.95   -9.77   -1.18   0.000   0.200   0.000    0.00
   9.800    6.12  -10.35   -1.00   0.000   0.200   0.000    0.00
   9.850    5.78   -9.64   -0.78   0.000   0.200   0.000    0.00
   9.900    5.62   -9.63   -0.92   0.000   0.200   0.000    0.00
   9.950    5.78   -9.97   -0.80   0.000   0.200   0.000    0.00
  10.000    5.62   -5.94   -1.14   0.000   0.200   0.000    0.00
  10.050    5.68   -3.91   -0.69   0.000   0.200   0.000    0.00
  10.100    5.89   -7.15   -0.47   0.000   0.200   0.000    0.00
  10.150    5.64   -3.47   -0.90   0.000   0.200   0.000    0.00
  10.200    5.82    2.70   -0.57   0.000   0.200   0.000    0.00
  10.250    5.55   -3.13   -0.51   0.000   0.200   0.000    0.00
  10.300    5.57   -5.48   -0.26   0.000   0.200   0.000    0.00
  10.350    5.78   -9.00   -0.13   0.000   0.200   0.000    0.00
  10.400    5.88  -10.28   -0.31   0.000   0.200   0.000    0.00
  10.450    6.00   -7.85   -0.49   0.000   0.200   0.000    0.00
  10.500    6.19   -9.53   -0.10   0.000   0.200   0.000    0.00
  10.550    5.93   -8.47   -0.39   0.000   0.200   0.000    0.00
  10.600    5.64   -8.73    0.15   0.000   0.200   0.000    0.00
  10.650    5.59   -5.15    0.21   0.000   0.200   0.000    0.00
  10.700    5.74   -3.99    0.54   0.000   0.200   0.000    0.00
  10.750    5.93   -6.80    0.37   0.000   0.200   0.000    0.00
  10.800    5.66   -9.38    0.68   0.000   0.200   0.000    0.00
  10.850    5.62  -10.55    0.08   0.000   0.200   0.000    0.00
  10.900    5.82  -10.17    0.57   0.000   0.200   0.000    0.00
  10.950    6.25  -10.43    0.93   0.000   0.200   0.000    0.00
  11.000    6.35  -10.64    0.64   0.000   0.200   0.000    0.00
  11.050    6.33  -12.29    0.52   0.000   0.200   0.000    0.00
  11.100    6.49   -7.15    0.98   0.000   0.200   0.000    0.00
  11.150    6.48   -2.38    1.14   0.000   0.200   0.000    0.00
  11.200    6.47   -3.26    0.82   0.000   0.200   0.000    0.00
  11.250    6.51   -3.27    0.88   0.000   0.200   0.000    0.00
  11.300    6.50   -6.00    0.82   0.000   0.200   0.000    0.00
  11.350    6.42   -6.48    0.41   0.000   0.200   0.000    0.00
  11.400    6.56   -7.93    0.20   0.000   0.200   0.000    0.00
  11.450    5.95   -3.70    0.20   0.000   0.200   0.000    0.00
  11.500    5.99   -3.62   -0.04   0.000   0.200   0.000    0.00
  11.550    5.83   -7.25    0.44   0.000   0.200   0.000    0.00
  11.600    5.81   -3.96    0.42   0.000   0.200   0.000    0.00
  11.650    5.86   -0.21    0.21   0.000   0.200   0.000    0.00
  11.700    6.16    2.10   -0.09   0.000   0.200   0.000    0.00
  11.750    5.97    1.91   -0.34   0.000   0.200   0.000    0.00
  11.800    5.93    5.72    0.05   0.000   0.200   0.000    0.00
  11.850    6.12    6.31    0.37   0.000   0.200   0.000    0.00
  11.900    5.91    4.88    0.64   0.000   0.200   0.000    0.00
  11.950    5.65    8.95    0.35   0.000   0.200   0.000    0.00
  12.000    5.64    7.25    0.25   0.000   0.200   0.000    0.00
  12.050    5.70    7.96    0.01   0.000   0.200   0.000    0.00
  12.100    5.59    6.48   -0.20   0.000   0.200   0.000    0.00
  12.150    5.75    8.67    0.28   0.000   0.200   0.000    0.00
  12.200    5.74    6.33    0.52   0.000   0.200   0.000    0.00
  12.250    6.33   10.70    0.42   0.000   0.200   0.000    0.00
  12.300    6.75    5.32    0.28   0.000   0.200   0.000    0.00
  12.350    6.84   11.05    0.10   0.000   0.200   0.000    0.00
  12.400    6.77   13.21    0.28   0.000   0.200   0.000    0.00
  12.450    6.95   12.59    0.37   0.000   0.200   0.000    0.00
  12.500    6.66   14.08    0.38   0.000   0.200   0.000    0.00
  12.550    6.42   15.60    0.36   0.000   0.200   0.000    0.00
  12.600    6.47   16.26    0.12   0.000   0.200   0.000    0.00
  12.650    6.78   13.38    0.05   0.000   0.200   0.000    0.00
  12.700    6.71   11.34    0.24   0.000   0.200   0.000    0.00
  12.750    6.69   11.14    0.56   0.000   0.200   0.000    0.00
  12.800    6.71   10.83    0.23   0.000   0.200   0.000    0.00
  12.850    6.42   12.46    0.16   0.000   0.200   0.000    0.00
  12.900    6.71   14.25   -0.14   0.000   0.200   0.000    0.00
  12.950    6.76   16.05   -0.01   0.000   0.200   0.000    0.00
  13.000    7.03   17.41    0.31   0.000   0.200   0.000    0.00
  13.050    6.87   17.47    0.38   0.000   0.200   0.000    0.00
  13.100    6.73   21.23    0.22   0.000   0.200   0.000    0.00
  13.150    6.84   20.80    0.60   0.000   0.200   0.000    0.00
  13.200    6.93   20.03    1.33   0.000   0.200   0.000    0.00
  13.250    6.61   22.52    0.60   0.000   0.200   0.000    0.00
  13.300    6.80   25.76    1.11   0.000   0.200   0.000    0.00
  13.350    6.71   26.90    0.87   0.000   0.200   0.000    0.00
  13.400    6.89   27.37    0.52   0.000   0.200   0.000    0.00
  13.450    7.10   28.41    0.41   0.000   0.200   0.000    0.00
  13.500    7.22   30.04    0.44   0.000   0.200   0.000    0.00
  13.550    7.66   30.60    0.12   0.000   0.200   0.000    0.00
  13.600    7.54   31.44    0.39   0.000   0.200   0.000    0.00
  13.650    7.45   30.83    0.82   0.000   0.200   0.000    0.00
  13.700    7.43   24.66    0.93   0.000   0.200   0.000    0.00
  13.750    7.02   23.07    0.83   0.000   0.200   0.000    0.00
  13.800    7.17   25.98    0.40   0.000   0.200   0.000    0.00
  13.850    7.60   28.78    0.27   0.000   0.200   0.000    0.00
  13.900    7.54   25.57    0.61   0.000   0.200   0.000    0.00
  13.950    7.09   24.94    1.01   0.000   0.200   0.000    0.00
  14.000    7.52   27.53    1.21   0.000   0.200   0.000    0.00
  14.050    7.98   25.15    1.35   0.000   0.200   0.000    0.00
  14.100    8.29   24.66    1.47   0.000   0.200   0.000    0.00
  14.150    8.31   23.60    1.51   0.000   0.200   0.000    0.00
  14.200    8.28   22.34    1.26   0.000   0.200   0.000    0.00
  14.250    7.90   23.59    1.31   0.000   0.200   0.000    0.00
  14.300    8.22   22.45    0.69   0.000   0.200   0.000    0.00
  14.350    8.46   23.76    0.39   0.000   0.200   0.000    0.00
  14.400    8.19   20.36    0.41   0.000   0.200   0.000    0.00
  14.450    8.21   20.77    0.79   0.000   0.200   0.000    0.00
  14.500    8.02   17.15    0.50   0.000   0.200   0.000    0.00
  14.550    7.99   15.48    0.45   0.000   0.200   0.000    0.00
  14.600    7.85   19.07    0.31   0.000   0.200   0.000    0.00
  14.650    7.91   21.63    0.01   0.000   0.200   0.000    0.00
  14.700    8.16   20.70    0.60   0.000   0.200   0.000    0.00
  14.750    7.99   18.90    0.46   0.000   0.200   0.000    0.00
  14.800    8.15   16.48    0.34   0.000   0.200   0.000    0.00
  14.850    8.32   20.33    0.18   0.000   0.200   0.000    0.00
  14.900    8.85   22.59    0.01   0.000   0.200   0.000    0.00
  14.950    8.83   22.87   -0.17   0.000   0.200   0.000    0.00
  15.000    8.83   23.43   -0.14   0.000   0.200   0.000    0.00
  15.050    9.09   21.30   -0.11   0.000   0.200   0.000    0.00
  15.100    8.73   21.21    0.04   0.000   0.200   0.000    0.00
  15.150    9.28   22.08   -0.40   0.000   0.200   0.000    0.00
  15.200    9.14   21.85   -0.69   0.000   0.200   0.000    0.00
  15.250    8.88   19.07   -1.09   0.000   0.200   0.000    0.00
  15.300    8.80   17.02   -1.01   0.000   0.200   0.000    0.00
  15.350    8.90   15.53   -0.34   0.000   0.200   0.000    0.00
  15.400    9.14   16.33    0.01   0.000   0.200   0.000    0.00
  15.450    9.30   18.16   -0.01   0.000   0.200   0.000    0.00
  15.500    9.40   18.32   -0.22   0.000   0.200   0.000    0.00
  15.550    9.56   16.33    0.02   0.000   0.200   0.000    0.00
  15.600    9.85   15.90    0.26   0.000   0.200   0.000    0.00
  15.650    9.42   17.61   -0.22   0.000   0.200   0.000    0.00
  15.700    9.29   17.55   -0.85   0.000   0.200   0.000    0.00
  15.750    8.88   16.38   -0.83   0.000   0.200   0.000    0.00
  15.800    8.77   14.51   -0.27   0.000   0.200   0.000    0.00
  15.850    9.13   17.79    0.12   0.000   0.200   0.000    0.00
  15.900    8.89   18.81   -0.32   0.000   0.200   0.000    0.00
  15.950    8.65   15.59    0.09   0.000   0.200   0.000    0.00
  16.000    8.62   17.36    0.08   0.000   0.200   0.000    0.00
  16.050    8.48   18.80    0.18   0.000   0.200   0.000    0.00
  16.100    8.20   17.39   -0.06   0.000   0.200   0.000    0.00
  16.150    8.87   19.18   -0.38   0.000   0.200   0.000    0.00
  16.200    8.83   17.49   -0.70   0.000   0.200   0.000    0.00
  16.250    9.17   20.60   -0.85   0.000   0.200   0.000    0.00
  16.300    8.84   19.59   -0.64   0.000   0.200   0.000    0.00
  16.350    8.72   19.99   -0.44   0.000   0.200   0.000    0.00
  16.400    9.00   21.17   -0.20   0.000   0.200   0.000    0.00
  16.450    9.16   20.87   -0.04   0.000   0.200   0.000    0.00
  16.500    9.17   23.87   -0.01   0.000   0.200   0.000    0.00
  16.550    8.99   22.66   -0.17   0.000   0.200   0.000    0.00
  16.600    8.68   21.56   -0.44   0.000   0.200   0.000    0.00
  16.650    8.57   19.85   -0.19   0.000   0.200   0.000    0.00
  16.700    8.55   16.61    0.07   0.000   0.200   0.000    0.00
  16.750    8.52   15.78    0.31   0.000   0.200   0.000    0.00
  16.800    8.70   18.75    0.48   0.000   0.200   0.000    0.00
  16.850    8.66   15.65    0.33   0.000   0.200   0.000    0.00
  16.900    8.56   14.92    0.70   0.000   0.200   0.000    0.00
  16.950    8.65   12.12    0.47   0.000   0.200   0.000    0.00
  17.000    8.32   13.57   -0.22   0.000   0.200   0.000    0.00
  17.050    8.08   14.17   -0.12   0.000   0.200   0.000    0.00
  17.100    8.11   12.34    0.10   0.000   0.200   0.000    0.00
  17.150    8.45   15.36   -0.08   0.000   0.200   0.000    0.00
  17.200    8.37   13.57    0.19   0.000   0.200   0.000    0.00
  17.250    7.95   10.22   -0.61   0.000   0.200   0.000    0.00
  17.300    8.11   13.28   -0.83   0.000   0.200   0.000    0.00
  17.350    8.01   13.82   -0.69   0.000   0.200   0.000    0.00
  17.400    7.81   13.80   -0.48   0.000   0.200   0.000    0.00
  17.450    7.92   14.23   -0.39   0.000   0.200   0.000    0.00
  17.500    7.65   12.21    0.06   0.000   0.200   0.000    0.00
  17.550    7.57   14.08    0.50   0.000   0.200   0.000    0.00
  17.600    7.49   16.98    0.68   0.000   0.200   0.000    0.00
  17.650    7.64   18.76    0.34   0.000   0.200   0.000    0.00
  17.700    7.32   16.84    0.72   0.000   0.200   0.000    0.00
  17.750    7.42   16.70    0.62   0.000   0.200   0.000    0.00
  17.800    7.73   12.69    0.96   0.000   0.200   0.000    0.00
  17.850    7.88   10.37    0.61   0.000   0.200   0.000    0.00
  17.900    8.22    8.52    0.61   0.000   0.200   0.000    0.00
  17.950    7.85    6.89    0.46   0.000   0.200   0.000    0.00
  18.000    7.58    3.20    0.07   0.000   0.200   0.000    0.00
  18.050    7.97    2.85    0.33   0.000   0.200   0.000    0.00
  18.100    7.99    4.05    0.65   0.000   0.200   0.000    0.00
  18.150    8.17    7.20    0.59   0.000   0.200   0.000    0.00
  18.200    8.28   12.10    0.80   0.000   0.200   0.000    0.00
  18.250    8.42   12.84    0.42   0.000   0.200   0.000    0.00
  18.300    8.60    9.97   -0.01   0.000   0.200   0.000    0.00
  18.350    8.09    8.97   -0.22   0.000   0.200   0.000    0.00
  18.400    7.80    9.11   -0.67   0.000   0.200   0.000    0.00
  18.450    8.00    9.46   -1.21   0.000   0.200   0.000    0.00
  18.500    7.92    8.42   -1.28   0.000   0.200   0.000    0.00
  18.550    8.47    8.75   -1.14   0.000   0.200   0.000    0.00
  18.600    8.45    9.29   -0.83   0.000   0.200   0.000    0.00
  18.650    8.70    8.81   -0.31   0.000   0.200   0.000    0.00
  18.700    8.81   11.58   -0.08   0.000   0.200   0.000    0.00
  18.750    8.65   13.10   -0.39   0.000   0.200   0.000    0.00
  18.800    8.46   13.28   -0.61   0.000   0.200   0.000    0.00
  18.850    8.68   11.72   -0.71   0.000   0.200   0.000    0.00
  18.900    8.98   12.05   -0.76   0.000   0.200   0.000    0.00
  18.950    8.93   11.30   -0.67   0.000   0.200   0.000    0.00
  19.000    9.11   10.83   -0.41   0.000   0.200   0.000    0.00
  19.050    8.50    8.48   -0.68   0.000   0.200   0.000    0.00
  19.100    8.82    6.76   -0.84   0.000   0.200   0.000    0.00
  19.150    8.93    7.61   -0.92   0.000   0.200   0.000    0.00
  19.200    8.33    8.94   -0.58   0.000   0.200   0.000    0.00
  19.250    8.47    5.70   -0.82   0.000   0.200   0.000    0.00
  19.300    8.12    3.58   -0.89   0.000   0.200   0.000    0.00
  19.350    8.11    3.21   -0.66   0.000   0.200   0.000    0.00
  19.400    8.51    4.47   -0.47   0.000   0.200   0.000    0.00
  19.450    8.41    6.46    0.00   0.000   0.200   0.000    0.00
  19.500    8.31    3.26    0.09   0.000   0.200   0.000    0.00
  19.550    8.60    1.13    0.33   0.000   0.200   0.000    0.00
  19.600    9.04   -0.69    0.17   0.000   0.200   0.000    0.00
  19.650    9.04   -3.73    0.74   0.000   0.200   0.000    0.00
  19.700    8.72   -1.80    0.97   0.000   0.200   0.000    0.00
  19.750    9.00    1.34    1.12   0.000   0.200   0.000    0.00
  19.800    8.81    0.74    0.63   0.000   0.200   0.000    0.00
  19.850    8.69   -1.44    0.35   0.000   0.200   0.000    0.00
  19.900    8.60   -0.42    0.40   0.000   0.200   0.000    0.00
  19.950    9.15    1.53   -0.04   0.000   0.200   0.000    0.00
  20.000    9.02   -0.36   -0.13   0.000   0.200   0.000    0.00
  20.050    8.84   -1.41   -0.21   0.000   0.200   0.000    0.00
  20.100    9.02   -0.17   -0.68   0.000   0.200   0.000    0.00
  20.150    8.75   -1.19   -0.96   0.000   0.200   0.000    0.00
  20.200    8.96    0.57   -0.81   0.000   0.200   0.000    0.00
  20.250    8.95    1.35   -0.86   0.000   0.200   0.000    0.00
  20.300    8.97   -1.14   -0.85   0.000   0.200   0.000    0.00
  20.350    8.82    0.31   -1.21   0.000   0.200   0.000    0.00
  20.400    8.61   -3.00   -1.14   0.000   0.200   0.000    0.00
  20.450    8.60   -3.18   -1.26   0.000   0.200   0.000    0.00
  20.500    8.53   -0.29   -1.18   0.000   0.200   0.000    0.00
  20.550    8.63   -1.29   -0.84   0.000   0.200   0.000    0.00
  20.600    8.45   -1.77   -1.11   0.000   0.200   0.000    0.00
  20.650    8.15   -0.36   -1.21   0.000   0.200   0.000    0.00
  20.700    8.27    0.39   -1.90   0.000   0.200   0.000    0.00
  20.750    8.52   -0.05   -1.83   0.000   0.200   0.000    0.00
  20.800    8.85   -0.02   -1.73   0.000   0.200   0.000    0.00
  20.850    8.76   -0.74   -1.46   0.000   0.200   0.000    0.00
  20.900    9.27   -1.35   -1.10   0.000   0.200   0.000    0.00
  20.950    9.22   -1.08   -0.62   0.000   0.200   0.000    0.00
  21.000    9.27   -0.72   -0.23   0.000   0.200   0.000    0.00
  21.050    9.41   -0.16   -0.06   0.000   0.200   0.000    0.00
  21.100    9.29   -0.25   -0.19   0.000   0.200   0.000    0.00
  21.150    9.20    0.03   -0.16   0.000   0.200   0.000    0.00
  21.200    9.00   -2.86   -0.26   0.000   0.200   0.000    0.00
  21.250    8.88   -2.90   -0.41   0.000   0.200   0.000    0.00
  21.300    8.82   -1.38   -0.71   0.000   0.200   0.000    0.00
  21.350    8.98    0.78   -0.73   0.000   0.200   0.000    0.00
  21.400    8.97   -0.33   -0.90   0.000   0.200   0.000    0.00
  21.450    9.28   -1.16   -0.78   0.000   0.200   0.000    0.00
  21.500    9.11    0.78   -0.69   0.000   0.200   0.000    0.00
  21.550    9.55    0.77   -0.32   0.000   0.200   0.000    0.00
  21.600    9.71    0.39    0.27   0.000   0.200   0.000    0.00
  21.650    9.66   -2.06   -0.17   0.000   0.200   0.000    0.00
  21.700    9.62   -1.93   -0.25   0.000   0.200   0.000    0.00
  21.750    9.40   -3.15   -0.18   0.000   0.200   0.000    0.00
  21.800    9.49   -2.49   -0.30   0.000   0.200   0.000    0.00
  21.850    9.41   -4.13    0.08   0.000   0.200   0.000    0.00
  21.900    9.82   -4.78   -0.16   0.000   0.200   0.000    0.00
  21.950   10.05   -4.74    0.13   0.000   0.200   0.000    0.00
  22.000   10.06   -7.73    0.26   0.000   0.200   0.000    0.00
  22.050    9.83   -8.97    0.57   0.000   0.200   0.000    0.00
  22.100    9.52   -8.60    0.97   0.000   0.200   0.000    0.00
  22.150    9.91   -4.71    0.77   0.000   0.200   0.000    0.00
  22.200    9.85   -4.09    0.69   0.000   0.200   0.000    0.00
  22.250    9.89   -5.96   -0.16   0.000   0.200   0.000    0.00
  22.300   10.09   -7.04   -0.30   0.000   0.200   0.000    0.00
  22.350   10.41   -7.85   -0.20   0.000   0.200   0.000    0.00