! This hub-height wind-speed file was generated by TurbSim (v1.06.00, 21-Sep-2012) on 16-Jun-2018 at 18:32:32.
!
! The requested statistics for this data were:
!    Mean Total Wind Speed =   23.000 m/s
!    Turbulence Intensity  =   17.433%
!
!   Time  HorSpd  WndDir  VerSpd  HorShr  VerShr  LnVShr  GstSpd
!  (sec)   (m/s)   (deg)   (m/s)     (-)     (-)     (-)   (m/s)
   0.000   22.96    2.81   -3.42   0.000   0.200   0.000    0.00
   0.050   21.41    2.39   -3.29   0.000   0.200   0.000    0.00
   0.100   21.26    3.79   -2.83   0.000   0.200   0.000    0.00
   0.150   21.06    3.34   -2.86   0.000   0.200   0.000    0.00
   0.200   21.54    4.11   -2.07   0.000   0.200   0.000    0.00
   0.250   22.57    3.27   -1.41   0.000   0.200   0.000    0.00
   0.300   22.12    3.26   -2.69   0.000   0.200   0.000    0.00
   0.350   21.78    1.72   -2.82   0.000   0.200   0.000    0.00
   0.400   23.09    4.85   -1.42   0.000   0.200   0.000    0.00
   0.450   23.27    4.89   -0.65   0.000   0.200   0.000    0.00
   0.500   22.33    4.99   -1.41   0.000   0.200   0.000    0.00
   0.550   22.01    4.58   -2.37   0.000   0.200   0.000    0.00
   0.600   22.05    2.54   -2.22   0.000   0.200   0.000    0.00
   0.650   21.21    5.87   -2.85   0.000   0.200   0.000    0.00
   0.700   21.33   10.56   -2.65   0.000   0.200   0.000    0.00
   0.750   21.10    8.42   -1.89   0.000   0.200   0.000    0.00
   0.800   22.04    9.42   -0.81   0.000   0.200   0.000    0.00
   0.850   22.37   10.16   -1.94   0.000   0.200   0.000    0.00
   0.900   22.48    8.87   -2.14   0.000   0.200   0.000    0.00
   0.950   22.31    5.50   -1.94   0.000   0.200   0.000    0.00
   1.000   22.37    3.52   -2.72   0.000   0.200   0.000    0.00
   1.050   23.66    5.48   -1.96   0.000   0.200   0.000    0.00
   1.100   23.57    4.21   -2.47   0.000   0.200   0.000    0.00
   1.150   23.45    7.36   -1.97   0.000   0.200   0.000    0.00
   1.200   23.98    5.17   -2.20   0.000   0.200   0.000    0.00
   1.250   23.36    3.89   -3.40   0.000   0.200   0.000    0.00
   1.300   22.92    5.74   -3.02   0.000   0.200   0.000    0.00
   1.350   23.38    3.70   -3.17   0.000   0.200   0.000    0.00
   1.400   24.07    8.26   -3.06   0.000   0.200   0.000    0.00
   1.450   24.75    4.24   -2.35   0.000   0.200   0.000    0.00
   1.500   25.24    5.25   -3.24   0.000   0.200   0.000    0.00
   1.550   24.83    2.64   -2.77   0.000   0.200   0.000    0.00
   1.600   24.50    0.65   -2.42   0.000   0.200   0.000    0.00
   1.650   23.62    0.90   -3.31   0.000   0.200   0.000    0.00
   1.700   24.45    3.39   -3.66   0.000   0.200   0.000    0.00
   1.750   23.85    1.58   -3.34   0.000   0.200   0.000    0.00
   1.800   24.03   -0.40   -3.98   0.000   0.200   0.000    0.00
   1.850   23.36    2.22   -4.52   0.000   0.200   0.000    0.00
   1.900   23.62    2.09   -3.74   0.000   0.200   0.000    0.00
   1.950   23.76   -1.36   -2.90   0.000   0.200   0.000    0.00
   2.000   23.08   -3.18   -1.78   0.000   0.200   0.000    0.00
   2.050   22.82   -3.66   -2.89   0.000   0.200   0.000    0.00
   2.100   25.02   -2.37   -1.60   0.000   0.200   0.000    0.00
   2.150   24.47    1.40   -1.30   0.000   0.200   0.000    0.00
   2.200   23.00    5.11   -1.45   0.000   0.200   0.000    0.00
   2.250   22.18    3.01   -2.36   0.000   0.200   0.000    0.00
   2.300   22.80    7.15   -3.05   0.000   0.200   0.000    0.00
   2.350   22.30    9.47   -3.65   0.000   0.200   0.000    0.00
   2.400   21.76   12.96   -3.81   0.000   0.200   0.000    0.00
   2.450   22.57   16.40   -2.98   0.000   0.200   0.000    0.00
   2.500   21.37   11.39   -3.15   0.000   0.200   0.000    0.00
   2.550   20.50   12.43   -3.41   0.000   0.200   0.000    0.00
   2.600   22.56   14.42   -3.38   0.000   0.200   0.000    0.00
   2.650   22.76   12.91   -3.10   0.000   0.200   0.000    0.00
   2.700   22.30   11.65   -3.45   0.000   0.200   0.000    0.00
   2.750   21.25   12.19   -3.58   0.000   0.200   0.000    0.00
   2.800   20.39   12.01   -2.68   0.000   0.200   0.000    0.00
   2.850   21.30    5.56   -3.86   0.000   0.200   0.000    0.00
   2.900   22.50    5.05   -4.74   0.000   0.200   0.000    0.00
   2.950   22.81    5.85   -3.99   0.000   0.200   0.000    0.00
   3.000   23.17    7.23   -4.24   0.000   0.200   0.000    0.00
   3.050   24.10    9.28   -4.46   0.000   0.200   0.000    0.00
   3.100   22.60   11.33   -3.23   0.000   0.200   0.000    0.00
   3.150   21.72    9.60   -2.00   0.000   0.200   0.000    0.00
   3.200   21.65   10.43   -3.25   0.000   0.200   0.000    0.00
   3.250   21.70    7.53   -3.79   0.000   0.200   0.000    0.00
   3.300   19.42    5.41   -4.29   0.000   0.200   0.000    0.00
   3.350   20.35    6.03   -4.46   0.000   0.200   0.000    0.00
   3.400   21.35    7.14   -4.41   0.000   0.200   0.000    0.00
   3.450   20.89    6.90   -3.84   0.000   0.200   0.000    0.00
   3.500   21.20    6.56   -3.94   0.000   0.200   0.000    0.00
   3.550   20.69    9.23   -4.03   0.000   0.200   0.000    0.00
   3.600   20.69   11.36   -4.56   0.000   0.200   0.000    0.00
   3.650   20.43   15.90   -3.59   0.000   0.200   0.000    0.00
   3.700   20.09   19.26   -2.56   0.000   0.200   0.000    0.00
   3.750   19.26   16.26   -0.52   0.000   0.200   0.000    0.00
   3.800   18.49   18.66   -1.41   0.000   0.200   0.000    0.00
   3.850   18.54   16.28    0.08   0.000   0.200   0.000    0.00
   3.900   18.07   14.93    0.98   0.000   0.200   0.000    0.00
   3.950   18.62   17.32    0.60   0.000   0.200   0.000    0.00
   4.000   18.84   11.15    0.92   0.000   0.200   0.000    0.00
   4.050   19.06   12.92    2.35   0.000   0.200   0.000    0.00
   4.100   18.22   15.27    2.30   0.000   0.200   0.000    0.00
   4.150   18.26   11.59    2.30   0.000   0.200   0.000    0.00
   4.200   19.33    8.91    2.38   0.000   0.200   0.000    0.00
   4.250   19.40   11.73    2.03   0.000   0.200   0.000    0.00
   4.300   18.51   12.63    2.86   0.000   0.200   0.000    0.00
   4.350   17.37    8.84    2.38   0.000   0.200   0.000    0.00
   4.400   17.95   11.06    2.33   0.000   0.200   0.000    0.00
   4.450   18.83    9.01    0.97   0.000   0.200   0.000    0.00
   4.500   19.37    6.37    0.19   0.000   0.200   0.000    0.00
   4.550   18.51    5.56    1.00   0.000   0.200   0.000    0.00
   4.600   19.91    6.77    1.29   0.000   0.200   0.000    0.00
   4.650   19.88    0.64    0.49   0.000   0.200   0.000    0.00
   4.700   19.40    0.91    0.52   0.000   0.200   0.000    0.00
   4.750   17.48    0.85    1.07   0.000   0.200   0.000    0.00
   4.800   17.72   -4.40    0.42   0.000   0.200   0.000    0.00
   4.850   17.59   -6.38   -1.28   0.000   0.200   0.000    0.00
   4.900   17.24   -5.71   -0.98   0.000   0.200   0.000    0.00
   4.950   18.10    3.43   -0.32   0.000   0.200   0.000    0.00
   5.000   19.28    3.60   -1.14   0.000   0.200   0.000    0.00
   5.050   18.99    6.78   -0.04   0.000   0.200   0.000    0.00
   5.100   18.18   10.03   -1.05   0.000   0.200   0.000    0.00
   5.150   18.86    6.81   -1.55   0.000   0.200   0.000    0.00
   5.200   19.33    7.00   -0.27   0.000   0.200   0.000    0.00
   5.250   19.18    5.14    0.01   0.000   0.200   0.000    0.00
   5.300   19.32    4.12    0.68   0.000   0.200   0.000    0.00
   5.350   19.48    8.38   -1.01   0.000   0.200   0.000    0.00
   5.400   18.55    6.05   -1.75   0.000   0.200   0.000    0.00
   5.450   18.66   12.11   -1.09   0.000   0.200   0.000    0.00
   5.500   18.37   17.47   -2.13   0.000   0.200   0.000    0.00
   5.550   18.97   19.79   -2.47   0.000   0.200   0.000    0.00
   5.600   18.84   21.59   -1.89   0.000   0.200   0.000    0.00
   5.650   17.91   17.44   -0.70   0.000   0.200   0.000    0.00
   5.700   16.15   18.96   -0.88   0.000   0.200   0.000    0.00
   5.750   16.17   16.46   -1.09   0.000   0.200   0.000    0.00
   5.800   17.27   18.89   -1.90   0.000   0.200   0.000    0.00
   5.850   16.95   19.50   -0.39   0.000   0.200   0.000    0.00
   5.900   17.76   16.42    1.12   0.000   0.200   0.000    0.00
   5.950   17.23   12.21    0.68   0.000   0.200   0.000    0.00
   6.000   16.19    8.02    0.25   0.000   0.200   0.000    0.00
   6.050   16.39    7.18    0.80   0.000   0.200   0.000    0.00
   6.100   15.80    7.70    1.32   0.000   0.200   0.000    0.00
   6.150   16.01    3.50   -0.60   0.000   0.200   0.000    0.00
   6.200   17.04   -1.04    1.22   0.000   0.200   0.000    0.00
   6.250   16.73    2.41    1.81   0.000   0.200   0.000    0.00
   6.300   16.88    3.78    0.83   0.000   0.200   0.000    0.00
   6.350   16.36   -3.00   -0.64   0.000   0.200   0.000    0.00
   6.400   17.20   -1.98   -0.66   0.000   0.200   0.000    0.00
   6.450   17.15   -2.93   -0.95   0.000   0.200   0.000    0.00
   6.500   17.62   -2.15   -0.73   0.000   0.200   0.000    0.00
   6.550   17.78    1.99   -0.37   0.000   0.200   0.000    0.00
   6.600   17.51    1.86   -0.97   0.000   0.200   0.000    0.00
   6.650   17.61   -2.14   -0.16   0.000   0.200   0.000    0.00
   6.700   17.79   -2.58   -0.74   0.000   0.200   0.000    0.00
   6.750   17.23   -1.49   -1.19   0.000   0.200   0.000    0.00
   6.800   17.85   -2.72   -0.29   0.000   0.200   0.000    0.00
   6.850   16.83    0.74   -1.24   0.000   0.200   0.000    0.00
   6.900   17.22    0.57   -0.65   0.000   0.200   0.000    0.00
   6.950   17.23    0.79    0.18   0.000   0.200   0.000    0.00
   7.000   17.86   -0.60    0.63   0.000   0.200   0.000    0.00
   7.050   17.76    0.75   -0.93   0.000   0.200   0.000    0.00
   7.100   18.11    0.80   -0.37   0.000   0.200   0.000    0.00
   7.150   18.14    0.55   -0.53   0.000   0.200   0.000    0.00
   7.200   17.91   -2.51    0.65   0.000   0.200   0.000    0.00
   7.250   18.33   -1.62    1.44   0.000   0.200   0.000    0.00
   7.300   19.89    3.69    1.81   0.000   0.200   0.000    0.00
   7.350   19.32    2.26   -0.22   0.000   0.200   0.000    0.00
   7.400   18.84    0.92    0.20   0.000   0.200   0.000    0.00
   7.450   18.89    2.70    0.08   0.000   0.200   0.000    0.00
   7.500   17.70    2.95   -0.29   0.000   0.200   0.000    0.00
   7.550   18.89   -1.20   -0.11   0.000   0.200   0.000    0.00
   7.600   18.46    1.42    1.84   0.000   0.200   0.000    0.00
   7.650   17.22   -0.46    2.49   0.000   0.200   0.000    0.00
   7.700   16.01   -3.47    0.32   0.000   0.200   0.000    0.00
   7.750   16.55   -3.29   -0.80   0.000   0.200   0.000    0.00
   7.800   17.00   -4.40    0.17   0.000   0.200   0.000    0.00
   7.850   16.60   -7.54   -0.21   0.000   0.200   0.000    0.00
   7.900   17.15   -5.99   -0.74   0.000   0.200   0.000    0.00
   7.950   17.47   -6.63   -2.05   0.000   0.200   0.000    0.00
   8.000   17.71   -7.32   -0.88   0.000   0.200   0.000    0.00
   8.050   17.90  -10.55   -1.03   0.000   0.200   0.000    0.00
   8.100   17.53   -9.12   -1.36   0.000   0.200   0.000    0.00
   8.150   18.61  -14.94   -0.26   0.000   0.200   0.000    0.00
   8.200   19.04   -6.78    0.18   0.000   0.200   0.000    0.00
   8.250   18.73   -2.02   -1.00   0.000   0.200   0.000    0.00
   8.300   19.30    1.11   -1.23   0.000   0.200   0.000    0.00
   8.350   21.20    2.59   -2.41   0.000   0.200   0.000    0.00
   8.400   21.81    1.45   -3.42   0.000   0.200   0.000    0.00
   8.450   21.30   -0.98   -2.25   0.000   0.200   0.000    0.00
   8.500   20.95   -4.67   -1.31   0.000   0.200   0.000    0.00
   8.550   19.96   -5.76   -0.70   0.000   0.200   0.000    0.00
   8.600   19.76   -7.25    0.15   0.000   0.200   0.000    0.00
   8.650   18.96   -6.69   -0.64   0.000   0.200   0.000    0.00
   8.700   19.14   -1.58   -1.26   0.000   0.200   0.000    0.00
   8.750   19.50    0.07    0.27   0.000   0.200   0.000    0.00
   8.800   19.58   -4.59    1.44   0.000   0.200   0.000    0.00
   8.850   18.87    1.25    1.01   0.000   0.200   0.000    0.00
   8.900   18.58    4.78   -0.80   0.000   0.200   0.000    0.00
   8.950   18.19    3.70   -1.75   0.000   0.200   0.000    0.00
   9.000   18.66    5.60   -1.10   0.000   0.200   0.000    0.00
   9.050   19.40    6.99   -1.76   0.000   0.200   0.000    0.00
   9.100   18.68    5.85   -1.15   0.000   0.200   0.000    0.00
   9.150   19.04    1.42   -2.22   0.000   0.200   0.000    0.00
   9.200   19.33    5.92   -2.53   0.000   0.200   0.000    0.00
   9.250   18.81    1.55   -2.25   0.000   0.200   0.000    0.00
   9.300   19.28   -2.50   -1.52   0.000   0.200   0.000    0.00
   9.350   19.06   -2.25   -0.13   0.000   0.200   0.000    0.00
   9.400   19.11   -1.78   -0.06   0.000   0.200   0.000    0.00
   9.450   19.79   -4.27   -0.55   0.000   0.200   0.000    0.00
   9.500   20.74   -7.60   -1.29   0.000   0.200   0.000    0.00
   9.550   21.04  -14.53   -1.81   0.000   0.200   0.000    0.00
   9.600   21.37  -13.10   -3.56   0.000   0.200   0.000    0.00
   9.650   22.34  -13.53   -3.19   0.000   0.200   0.000    0.00
   9.700   22.67  -11.15   -3.37   0.000   0.200   0.000    0.00
   9.750   22.36   -8.15   -2.50   0.000   0.200   0.000    0.00
   9.800   21.63  -12.03   -3.41   0.000   0.200   0.000    0.00
   9.850   22.03  -10.61   -2.72   0.000   0.200   0.000    0.00
   9.900   22.71   -9.02   -1.24   0.000   0.200   0.000    0.00
   9.950   24.15   -6.67   -2.36   0.000   0.200   0.000    0.00
  10.000   24.03   -7.24   -3.74   0.000   0.200   0.000    0.00
  10.050   22.25   -5.15   -4.09   0.000   0.200   0.000    0.00
  10.100   21.98   -8.53   -3.54   0.000   0.200   0.000    0.00
  10.150   22.79  -10.52   -3.21   0.000   0.200   0.000    0.00
  10.200   21.42  -11.64   -3.44   0.000   0.200   0.000    0.00
  10.250   21.72  -15.46   -3.98   0.000   0.200   0.000    0.00
  10.300   21.89  -11.14   -3.55   0.000   0.200   0.000    0.00
  10.350   22.47   -9.55   -2.91   0.000   0.200   0.000    0.00
  10.400   21.10  -10.20   -1.70   0.000   0.200   0.000    0.00
  10.450   21.91   -9.38   -1.70   0.000   0.200   0.000    0.00
  10.500   22.91   -8.12    0.42   0.000   0.200   0.000    0.00
  10.550   22.25   -6.92    1.86   0.000   0.200   0.000    0.00
  10.600   23.15   -3.63    1.93   0.000   0.200   0.000    0.00
  10.650   22.72   -0.80    1.83   0.000   0.200   0.000    0.00
  10.700   21.77   -0.74    1.37   0.000   0.200   0.000    0.00
  10.750   20.51   -5.32    1.51   0.000   0.200   0.000    0.00
  10.800   21.10   -2.40    2.03   0.000   0.200   0.000    0.00
  10.850   22.68   -0.23    1.14   0.000   0.200   0.000    0.00
  10.900   24.33   -1.28    1.26   0.000   0.200   0.000    0.00
  10.950   21.88   -3.45    1.35   0.000   0.200   0.000    0.00
  11.000   23.25   -3.88    1.40   0.000   0.200   0.000    0.00
  11.050   24.53   -5.45    0.59   0.000   0.200   0.000    0.00
  11.100   25.26   -8.51    1.34   0.000   0.200   0.000    0.00
  11.150   23.91   -5.71    1.42   0.000   0.200   0.000    0.00
  11.200   25.05   -4.12    0.64   0.000   0.200   0.000    0.00
  11.250   22.82    2.72    0.42   0.000   0.200   0.000    0.00
  11.300   23.00    3.49   -0.26   0.000   0.200   0.000    0.00
  11.350   23.63    2.51   -0.97   0.000   0.200   0.000    0.00
  11.400   23.84    3.50    0.15   0.000   0.200   0.000    0.00
  11.450   24.22   -1.51   -0.49   0.000   0.200   0.000    0.00
  11.500   24.61   -1.77   -1.25   0.000   0.200   0.000    0.00
  11.550   25.01    0.30   -0.79   0.000   0.200   0.000    0.00
  11.600   26.00   -0.88   -1.17   0.000   0.200   0.000    0.00
  11.650   25.19   -1.22    0.18   0.000   0.200   0.000    0.00
  11.700   23.77   -0.35   -0.02   0.000   0.200   0.000    0.00
  11.750   24.04   -0.91    1.65   0.000   0.200   0.000    0.00
  11.800   24.21   -1.17    1.83   0.000   0.200   0.000    0.00
  11.850   23.61   -0.58    2.46   0.000   0.200   0.000    0.00
  11.900   24.61    1.32    2.47   0.000   0.200   0.000    0.00
  11.950   23.53   -1.24    2.48   0.000   0.200   0.000    0.00
  12.000   22.77   -3.34    2.92   0.000   0.200   0.000    0.00
  12.050   23.81   -4.05    2.17   0.000   0.200   0.000    0.00
  12.100   23.89   -3.25    1.99   0.000   0.200   0.000    0.00
  12.150   24.02   -4.90    1.15   0.000   0.200   0.000    0.00
  12.200   23.01   -3.03    2.10   0.000   0.200   0.000    0.00
  12.250   21.50   -2.09    3.08   0.000   0.200   0.000    0.00
  12.300   22.65   -1.54    2.54   0.000   0.200   0.000    0.00
  12.350   22.00   -0.56    0.61   0.000   0.200   0.000    0.00
  12.400   20.10    2.37    0.15   0.000   0.200   0.000    0.00
  12.450   20.46   -0.48   -0.08   0.000   0.200   0.000    0.00
  12.500   19.62    0.74   -0.40   0.000   0.200   0.000    0.00
  12.550   19.56    2.93    0.74   0.000   0.200   0.000    0.00
  12.600   20.20    2.01    1.82   0.000   0.200   0.000    0.00
  12.650   19.71   -1.42    2.52   0.000   0.200   0.000    0.00
  12.700   19.69   -2.68    1.49   0.000   0.200   0.000    0.00
  12.750   20.10   -0.42    1.99   0.000   0.200   0.000    0.00
  12.800   20.70    0.94    1.16   0.000   0.200   0.000    0.00
  12.850   20.22    2.52    0.08   0.000   0.200   0.000    0.00
  12.900   19.75    0.81   -0.60   0.000   0.200   0.000    0.00
  12.950   19.25    1.30    0.38   0.000   0.200   0.000    0.00
  13.000   20.35    0.63    1.34   0.000   0.200   0.000    0.00
  13.050   21.43    2.88    0.98   0.000   0.200   0.000    0.00
  13.100   21.37    0.73   -0.03   0.000   0.200   0.000    0.00
  13.150   21.39    1.79   -0.39   0.000   0.200   0.000    0.00
  13.200   21.93    2.14   -1.52   0.000   0.200   0.000    0.00
  13.250   21.12   -4.70   -1.85   0.000   0.200   0.000    0.00
  13.300   20.53   -9.38   -1.36   0.000   0.200   0.000    0.00
  13.350   20.63   -7.33   -1.26   0.000   0.200   0.000    0.00
  13.400   21.45   -3.34   -0.64   0.000   0.200   0.000    0.00
  13.450   22.17   -5.68   -0.09   0.000   0.200   0.000    0.00
  13.500   21.93   -7.15   -0.51   0.000   0.200   0.000    0.00
  13.550   20.24   -5.67   -0.82   0.000   0.200   0.000    0.00
  13.600   18.76   -4.20   -0.99   0.000   0.200   0.000    0.00
  13.650   19.30   -2.99   -1.46   0.000   0.200   0.000    0.00
  13.700   19.75  -10.59    0.51   0.000   0.200   0.000    0.00
  13.750   21.58   -8.80   -0.70   0.000   0.200   0.000    0.00
  13.800   21.14   -9.34   -2.35   0.000   0.200   0.000    0.00
  13.850   21.67   -8.10   -1.34   0.000   0.200   0.000    0.00
  13.900   22.29   -4.67   -0.97   0.000   0.200   0.000    0.00
  13.950   21.63   -5.68   -1.84   0.000   0.200   0.000    0.00
  14.000   21.92   -7.74   -2.29   0.000   0.200   0.000    0.00
  14.050   21.48   -2.47   -1.22   0.000   0.200   0.000    0.00
  14.100   21.40   -3.60   -1.13   0.000   0.200   0.000    0.00
  14.150   20.75   -6.51   -1.78   0.000   0.200   0.000    0.00
  14.200   21.64   -8.50   -0.26   0.000   0.200   0.000    0.00
  14.250   21.75   -8.03   -0.11   0.000   0.200   0.000    0.00
  14.300   22.34   -7.90   -0.86   0.000   0.200   0.000    0.00
  14.350   21.33   -9.47   -1.28   0.000   0.200   0.000    0.00
  14.400   21.69   -6.74   -1.39   0.000   0.200   0.000    0.00
  14.450   21.59   -9.99    0.71   0.000   0.200   0.000    0.00
  14.500   21.90  -16.33    1.13   0.000   0.200   0.000    0.00
  14.550   22.07  -16.01    1.15   0.000   0.200   0.000    0.00
  14.600   21.13  -16.67    0.95   0.000   0.200   0.000    0.00
  14.650   20.91  -17.53    1.65   0.000   0.200   0.000    0.00
  14.700   21.29  -19.01    2.20   0.000   0.200   0.000    0.00
  14.750   20.73  -19.09    2.42   0.000   0.200   0.000    0.00
  14.800   19.56  -16.17    2.43   0.000   0.200   0.000    0.00
  14.850   20.86  -13.24    3.09   0.000   0.200   0.000    0.00
  14.900   21.31  -14.74    2.67   0.000   0.200   0.000    0.00
  14.950   19.65  -13.60    2.07   0.000   0.200   0.000    0.00
  15.000   19.50  -14.83    2.06   0.000   0.200   0.000    0.00
  15.050   19.54  -17.18    2.82   0.000   0.200   0.000    0.00
  15.100   20.30  -21.17    2.12   0.000   0.200   0.000    0.00
  15.150   20.06  -21.46    3.11   0.000   0.200   0.000    0.00
  15.200   19.26  -21.72    2.16   0.000   0.200   0.000    0.00
  15.250   18.14  -16.80    3.17   0.000   0.200   0.000    0.00
  15.300   18.78  -16.19    2.91   0.000   0.200   0.000    0.00
  15.350   20.44  -14.57    1.47   0.000   0.200   0.000    0.00
  15.400   19.12  -14.25    1.89   0.000   0.200   0.000    0.00
  15.450   19.74  -14.38    2.08   0.000   0.200   0.000    0.00
  15.500   19.27  -11.83    1.37   0.000   0.200   0.000    0.00
  15.550   19.22  -10.80   -0.06   0.000   0.200   0.000    0.00
  15.600   18.81   -9.20   -1.24   0.000   0.200   0.000    0.00
  15.650   18.45   -6.13    0.82   0.000   0.200   0.000    0.00
  15.700   18.80   -7.58    1.05   0.000   0.200   0.000    0.00
  15.750   19.59   -5.68    0.77   0.000   0.200   0.000    0.00
  15.800   19.31   -7.01    1.27   0.000   0.200   0.000    0.00
  15.850   18.41  -15.44   -0.16   0.000   0.200   0.000    0.00
  15.900   17.41  -17.75   -0.34   0.000   0.200   0.000    0.00
  15.950   19.26  -19.39   -0.56   0.000   0.200   0.000    0.00
  16.000   19.86  -16.93   -0.20   0.000   0.200   0.000    0.00
  16.050   19.67  -20.65    0.18   0.000   0.200   0.000    0.00
  16.100   18.62  -23.65    0.34   0.000   0.200   0.000    0.00
  16.150   19.44  -20.94    0.43   0.000   0.200   0.000    0.00
  16.200   20.25  -18.20    0.28   0.000   0.200   0.000    0.00
  16.250   20.43  -17.21    0.98   0.000   0.200   0.000    0.00
  16.300   19.57  -16.48    0.86   0.000   0.200   0.000    0.00
  16.350   19.03  -20.78   -0.31   0.000   0.200   0.000    0.00
  16.400   19.91  -19.87    1.22   0.000   0.200   0.000    0.00
  16.450   20.05  -16.19    0.44   0.000   0.200   0.000    0.00
  16.500   19.37  -17.46    0.01   0.000   0.200   0.000    0.00
  16.550   20.08  -16.48    0.31   0.000   0.200   0.000    0.00
  16.600   20.16  -19.03   -0.09   0.000   0.200   0.000    0.00
  16.650   20.12  -24.06   -0.30   0.000   0.200   0.000    0.00
  16.700   21.19  -23.73   -0.70   0.000   0.200   0.000    0.00
  16.750   23.25  -23.25   -0.66   0.000   0.200   0.000    0.00
  16.800   22.07  -24.58   -1.66   0.000   0.200   0.000    0.00
  16.850   20.85  -21.61   -1.30   0.000   0.200   0.000    0.00
  16.900   20.39  -15.31   -1.11   0.000   0.200   0.000    0.00
  16.950   20.01  -17.00   -0.56   0.000   0.200   0.000    0.00
  17.000   20.05  -17.06   -1.17   0.000   0.200   0.000    0.00
  17.050   20.72  -13.96   -2.82   0.000   0.200   0.000    0.00
  17.100   20.42  -13.47   -2.26   0.000   0.200   0.000    0.00
  17.150   20.98  -15.65   -1.93   0.000   0.200   0.000    0.00
  17.200   21.76  -18.55   -0.99   0.000   0.200   0.000    0.00
  17.250   21.88  -20.84   -1.19   0.000   0.200   0.000    0.00
  17.300   22.65  -18.78   -1.31   0.000   0.200   0.000    0.00
  17.350   21.39  -21.54   -0.87   0.000   0.200   0.000    0.00
  17.400   20.59  -22.71   -0.84   0.000   0.200   0.000    0.00
  17.450   20.07  -20.42   -0.50   0.000   0.200   0.000    0.00
  17.500   18.76  -16.98    0.00   0.000   0.200   0.000    0.00
  17.550   19.74  -16.42    0.45   0.000   0.200   0.000    0.00
  17.600   20.13  -14.07   -0.02   0.000   0.200   0.000    0.00
  17.650   20.26  -14.93    1.16   0.000   0.200   0.000    0.00
  17.700   19.20  -17.58    1.76   0.000   0.200   0.000    0.00
  17.750   19.24  -12.43    1.57   0.000   0.200   0.000    0.00
  17.800   19.87  -10.86    2.41   0.000   0.200   0.000    0.00
  17.850   20.75  -13.31    2.05   0.000   0.200   0.000    0.00
  17.900   20.19  -13.98    3.02   0.000   0.200   0.000    0.00
  17.950   21.46  -15.32    3.81   0.000   0.200   0.000    0.00
  18.000   22.66  -17.19    2.30   0.000   0.200   0.000    0.00
  18.050   23.23  -16.62    0.90   0.000   0.200   0.000    0.00
  18.100   23.50  -12.62    1.03   0.000   0.200   0.000    0.00
  18.150   24.15  -16.19    0.54   0.000   0.200   0.000    0.00
  18.200   25.08  -16.20   -1.45   0.000   0.200   0.000    0.00
  18.250   24.56  -14.76   -0.93   0.000   0.200   0.000    0.00
  18.300   23.68  -16.35   -0.83   0.000   0.200   0.000    0.00
  18.350   22.60  -16.57   -1.20   0.000   0.200   0.000    0.00
  18.400   22.59  -15.92   -0.83   0.000   0.200   0.000    0.00
  18.450   23.57  -15.33   -0.80   0.000   0.200   0.000    0.00
  18.500   23.21  -14.93   -0.51   0.000   0.200   0.000    0.00
  18.550   24.04  -13.41   -1.40   0.000   0.200   0.000    0.00
  18.600   23.41  -13.30    0.11   0.000   0.200   0.000    0.00
  18.650   25.01  -11.88    0.37   0.000   0.200   0.000    0.00
  18.700   25.36  -16.44    0.53   0.000   0.200   0.000    0.00
  18.750   25.01  -18.71    0.78   0.000   0.200   0.000    0.00
  18.800   26.02  -18.99    0.59   0.000   0.200   0.000    0.00
  18.850   25.02  -14.11   -0.13   0.000   0.200   0.000    0.00
  18.900   24.16  -13.39   -1.11   0.000   0.200   0.000    0.00
  18.950   24.12  -16.49   -0.01   0.000   0.200   0.000    0.00
  19.000   23.22  -15.58    0.60   0.000   0.200   0.000    0.00
  19.050   24.03  -14.92    0.52   0.000   0.200   0.000    0.00
  19.100   24.08  -15.66   -0.08   0.000   0.200   0.000    0.00
  19.150   24.34  -16.39   -0.51   0.000   0.200   0.000    0.00
  19.200   24.52  -17.45   -0.28   0.000   0.200   0.000    0.00
  19.250   24.91  -14.24    0.32   0.000   0.200   0.000    0.00
  19.300   25.55  -18.21   -0.28   0.000   0.200   0.000    0.00
  19.350   24.11  -20.16    0.15   0.000   0.200   0.000    0.00
  19.400   25.20  -18.26   -0.26   0.000   0.200   0.000    0.00
  19.450   24.77  -19.09   -1.00   0.000   0.200   0.000    0.00
  19.500   24.58  -20.95   -1.41   0.000   0.200   0.000    0.00
  19.550   22.62  -20.96   -2.64   0.000   0.200   0.000    0.00
  19.600   22.18  -17.82   -1.71   0.000   0.200   0.000    0.00
  19.650   22.21  -15.64   -3.62   0.000   0.200   0.000    0.00
  19.700   22.68  -14.01   -3.46   0.000   0.200   0.000    0.00
  19.750   23.11  -14.77   -3.44   0.000   0.200   0.000    0.00
  19.800   23.03  -16.14   -2.31   0.000   0.200   0.000    0.00
  19.850   23.09  -14.65   -0.40   0.000   0.200   0.000    0.00
  19.900   23.30  -13.96   -0.69   0.000   0.200   0.000    0.00
  19.950   24.15  -14.74   -0.72   0.000   0.200   0.000    0.00
  20.000   24.08  -15.18    0.55   0.000   0.200   0.000    0.00
  20.050   23.98  -14.35    0.13   0.000   0.200   0.000    0.00
  20.100   24.15  -14.94   -0.81   0.000   0.200   0.000    0.00
  20.150   23.30  -14.43   -2.13   0.000   0.200   0.000    0.00
  20.200   22.87  -15.55   -0.70   0.000   0.200   0.000    0.00
  20.250   22.86  -13.12   -0.06   0.000   0.200   0.000    0.00
  20.300   22.57  -11.27   -0.47   0.000   0.200   0.000    0.00
  20.350   23.46  -12.38   -0.22   0.000   0.200   0.000    0.00
  20.400   23.31   -8.73   -1.12   0.000   0.200   0.000    0.00
  20.450   22.81  -12.87   -1.72   0.000   0.200   0.000    0.00
  20.500   21.76  -17.57   -1.25   0.000   0.200   0.000    0.00
  20.550   20.78  -15.74   -0.67   0.000   0.200   0.000    0.00
  20.600   20.84  -13.87    0.12   0.000   0.200   0.000    0.00
  20.650   20.17   -9.03    0.09   0.000   0.200   0.000    0.00
  20.700   20.10   -7.12   -0.30   0.000   0.200   0.000    0.00
  20.750   21.67  -12.31   -0.26   0.000   0.200   0.000    0.00
  20.800   21.62  -11.84    0.79   0.000   0.200   0.000    0.00
  20.850   21.13  -14.16    0.09   0.000   0.200   0.000    0.00
  20.900   22.05  -12.58    0.00   0.000   0.200   0.000    0.00
  20.950   23.63   -9.55    0.09   0.000   0.200   0.000    0.00
  21.000   22.55   -8.45   -0.70   0.000   0.200   0.000    0.00
  21.050   23.34   -7.94   -0.55   0.000   0.200   0.000    0.00
  21.100   22.57   -6.93   -1.13   0.000   0.200   0.000    0.00
  21.150   23.28  -10.61   -1.63   0.000   0.200   0.000    0.00
  21.200   22.76  -12.68   -1.30   0.000   0.200   0.000    0.00
  21.250   22.66  -10.54   -1.11   0.000   0.200   0.000    0.00
  21.300   23.35   -9.10   -2.82   0.000   0.200   0.000    0.00
  21.350   23.78   -4.82   -4.21   0.000   0.200   0.000    0.00
  21.400   24.68   -4.46   -3.99   0.000   0.200   0.000    0.00
  21.450   24.81   -7.79   -2.42   0.000   0.200   0.000    0.00
  21.500   23.60   -8.39   -2.94   0.000   0.200   0.000    0.00
  21.550   23.63   -8.57   -2.81   0.000   0.200   0.000    0.00
  21.600   23.81   -6.34   -2.29   0.000   0.200   0.000    0.00
  21.650   24.41   -5.06   -3.77   0.000   0.200   0.000    0.00
  21.700   23.37   -4.12   -3.56   0.000   0.200   0.000    0.00
  21.750   23.33   -4.12   -2.03   0.000   0.200   0.000    0.00
  21.800   21.97   -5.80   -1.46   0.000   0.200   0.000    0.00
  21.850   21.85   -3.37   -1.31   0.000   0.200   0.000    0.00
  21.900   22.26   -2.73   -1.37   0.000   0.200   0.000    0.00
  21.950   22.44   -1.39   -2.23   0.000   0.200   0.000    0.00
  22.000   22.59   -1.70   -0.92   0.000   0.200   0.000    0.00
  22.050   23.71   -2.49   -0.71   0.000   0.200   0.000    0.00
  22.100   23.74   -1.97   -2.06   0.000   0.200   0.000    0.00
  22.150   24.78   -4.96   -2.09   0.000   0.200   0.000    0.00
  22.200   25.46   -5.27   -2.14   0.000   0.200   0.000    0.00
  22.250   25.16   -6.03   -1.37   0.000   0.200   0.000    0.00
  22.300   24.77   -9.03   -1.82   0.000   0.200   0.000    0.00
  22.350   24.89   -8.26   -1.92   0.000   0.200   0.000    0.00