! This hub-height wind-speed file was generated by TurbSim (v1.06.00, 21-Sep-2012) on 16-Jun-2018 at 18:37:22.
!
! The requested statistics for this data were:
!    Mean Total Wind Speed =   13.000 m/s
!    Turbulence Intensity  =   16.531%
!
!   Time  HorSpd  WndDir  VerSpd  HorShr  VerShr  LnVShr  GstSpd
!  (sec)   (m/s)   (deg)   (m/s)     (-)     (-)     (-)   (m/s)
   0.000    9.96   -0.26   -0.80   0.000   0.200   0.000    0.00
   0.050    9.71    2.46   -0.57   0.000   0.200   0.000    0.00
   0.100    9.59    4.56   -1.58   0.000   0.200   0.000    0.00
   0.150    9.56    4.35   -1.38   0.000   0.200   0.000    0.00
   0.200    9.75    6.08   -1.26   0.000   0.200   0.000    0.00
   0.250    9.88    8.46   -1.10   0.000   0.200   0.000    0.00
   0.300    9.95   10.25   -1.83   0.000   0.200   0.000    0.00
   0.350    9.74    8.56   -0.99   0.000   0.200   0.000    0.00
   0.400    9.64    4.05   -0.53   0.000   0.200   0.000    0.00
   0.450    9.55    4.70   -0.56   0.000   0.200   0.000    0.00
   0.500    9.31    7.03    0.10   0.000   0.200   0.000    0.00
   0.550    9.63    9.40    0.06   0.000   0.200   0.000    0.00
   0.600    9.51   11.89   -0.64   0.000   0.200   0.000    0.00
   0.650   10.11   11.44   -0.80   0.000   0.200   0.000    0.00
   0.700    9.53    3.14   -1.22   0.000   0.200   0.000    0.00
   0.750    9.20    6.35   -1.60   0.000   0.200   0.000    0.00
   0.800    9.46    7.63   -1.89   0.000   0.200   0.000    0.00
   0.850    9.61    5.60   -2.07   0.000   0.200   0.000    0.00
   0.900    9.57    5.24   -2.40   0.000   0.200   0.000    0.00
   0.950    9.63    4.61   -2.03   0.000   0.200   0.000    0.00
   1.000    9.13    8.72   -1.82   0.000   0.200   0.000    0.00
   1.050    9.48    6.58   -1.79   0.000   0.200   0.000    0.00
   1.100    9.80    4.44   -2.26   0.000   0.200   0.000    0.00
   1.150   10.03    4.73   -2.48   0.000   0.200   0.000    0.00
   1.200   10.13    3.20   -2.80   0.000   0.200   0.000    0.00
   1.250   10.09    1.42   -2.38   0.000   0.200   0.000    0.00
   1.300    9.44    0.93   -2.69   0.000   0.200   0.000    0.00
   1.350    9.51    0.45   -3.00   0.000   0.200   0.000    0.00
   1.400    9.67    1.81   -2.46   0.000   0.200   0.000    0.00
   1.450    9.89    1.93   -2.69   0.000   0.200   0.000    0.00
   1.500    9.72    2.57   -2.57   0.000   0.200   0.000    0.00
   1.550    9.86    4.09   -2.77   0.000   0.200   0.000    0.00
   1.600   10.30    6.47   -3.52   0.000   0.200   0.000    0.00
   1.650   11.11    5.01   -3.46   0.000   0.200   0.000    0.00
   1.700   11.26    4.14   -3.15   0.000   0.200   0.000    0.00
   1.750   11.47    5.96   -3.06   0.000   0.200   0.000    0.00
   1.800   11.31    5.65   -1.77   0.000   0.200   0.000    0.00
   1.850   11.41    8.70   -1.12   0.000   0.200   0.000    0.00
   1.900   11.00    7.22   -1.08   0.000   0.200   0.000    0.00
   1.950   11.07    5.83   -0.97   0.000   0.200   0.000    0.00
   2.000   11.14    6.89   -0.20   0.000   0.200   0.000    0.00
   2.050   11.02    7.80    0.33   0.000   0.200   0.000    0.00
   2.100   10.89    9.46    0.05   0.000   0.200   0.000    0.00
   2.150   10.28    7.81   -0.05   0.000   0.200   0.000    0.00
   2.200   10.24    4.53    0.44   0.000   0.200   0.000    0.00
   2.250   10.62    4.94    0.07   0.000   0.200   0.000    0.00
   2.300   10.38    4.51    0.19   0.000   0.200   0.000    0.00
   2.350   10.34    2.08    0.42   0.000   0.200   0.000    0.00
   2.400   10.10    4.37    0.26   0.000   0.200   0.000    0.00
   2.450   10.29    3.39    0.05   0.000   0.200   0.000    0.00
   2.500   10.16    4.17    0.04   0.000   0.200   0.000    0.00
   2.550    9.78    0.76   -0.34   0.000   0.200   0.000    0.00
   2.600   10.20    0.22   -0.33   0.000   0.200   0.000    0.00
   2.650   10.15   -0.63   -0.27   0.000   0.200   0.000    0.00
   2.700   10.14    2.47   -0.54   0.000   0.200   0.000    0.00
   2.750   10.30    1.12   -0.64   0.000   0.200   0.000    0.00
   2.800   10.46   -1.04   -0.53   0.000   0.200   0.000    0.00
   2.850    9.70   -0.01   -1.15   0.000   0.200   0.000    0.00
   2.900    9.60    2.30   -0.85   0.000   0.200   0.000    0.00
   2.950    9.61   -2.71   -0.97   0.000   0.200   0.000    0.00
   3.000   10.01   -5.73   -0.89   0.000   0.200   0.000    0.00
   3.050    9.95   -6.58   -0.90   0.000   0.200   0.000    0.00
   3.100    9.38   -4.95   -0.73   0.000   0.200   0.000    0.00
   3.150    8.98   -2.79   -0.18   0.000   0.200   0.000    0.00
   3.200    8.54   -1.17   -0.92   0.000   0.200   0.000    0.00
   3.250    9.12   -4.35   -1.19   0.000   0.200   0.000    0.00
   3.300    8.96    0.31   -0.95   0.000   0.200   0.000    0.00
   3.350    8.91   -2.47   -0.64   0.000   0.200   0.000    0.00
   3.400    9.36   -6.94   -0.91   0.000   0.200   0.000    0.00
   3.450    8.77   -3.77   -0.33   0.000   0.200   0.000    0.00
   3.500    9.12   -5.14   -0.23   0.000   0.200   0.000    0.00
   3.550    9.33   -6.46   -0.06   0.000   0.200   0.000    0.00
   3.600    8.91   -4.21    0.11   0.000   0.200   0.000    0.00
   3.650    9.14   -4.07   -0.23   0.000   0.200   0.000    0.00
   3.700    9.33    1.71    0.48   0.000   0.200   0.000    0.00
   3.750    9.66    0.30    0.84   0.000   0.200   0.000    0.00
   3.800    9.63   -1.47    0.49   0.000   0.200   0.000    0.00
   3.850    9.17   -4.96    1.03   0.000   0.200   0.000    0.00
   3.900    9.04   -0.82    1.43   0.000   0.200   0.000    0.00
   3.950    8.98    4.62    1.65   0.000   0.200   0.000    0.00
   4.000    9.36    4.07    1.62   0.000   0.200   0.000    0.00
   4.050    9.35    6.36    0.94   0.000   0.200   0.000    0.00
   4.100    9.44    2.75    0.61   0.000   0.200   0.000    0.00
   4.150    9.08    3.20    0.88   0.000   0.200   0.000    0.00
   4.200    8.80    4.56    1.01   0.000   0.200   0.000    0.00
   4.250    8.96    8.51    0.66   0.000   0.200   0.000    0.00
   4.300    9.39    6.85    0.69   0.000   0.200   0.000    0.00
   4.350    8.94    4.28    1.07   0.000   0.200   0.000    0.00
   4.400    8.98   11.26    0.88   0.000   0.200   0.000    0.00
   4.450    8.83   10.40    0.93   0.000   0.200   0.000    0.00
   4.500    8.99    7.63    1.10   0.000   0.200   0.000    0.00
   4.550    8.87   10.53    0.51   0.000   0.200   0.000    0.00
   4.600    9.12   11.31    0.10   0.000   0.200   0.000    0.00
   4.650    9.46   10.40    0.48   0.000   0.200   0.000    0.00
   4.700   10.03   10.05    0.39   0.000   0.200   0.000    0.00
   4.750   10.60   11.56    0.32   0.000   0.200   0.000    0.00
   4.800   10.35    8.79    0.44   0.000   0.200   0.000    0.00
   4.850   10.21    7.64    1.01   0.000   0.200   0.000    0.00
   4.900   10.11    5.72    0.23   0.000   0.200   0.000    0.00
   4.950    9.97    7.72    0.55   0.000   0.200   0.000    0.00
   5.000    9.74    1.07    0.40   0.000   0.200   0.000    0.00
   5.050   10.03    1.57    0.51   0.000   0.200   0.000    0.00
   5.100    9.78   -0.52    0.51   0.000   0.200   0.000    0.00
   5.150    9.29    2.07    0.56   0.000   0.200   0.000    0.00
   5.200    8.83   -0.30    0.61   0.000   0.200   0.000    0.00
   5.250    9.59    5.89    0.32   0.000   0.200   0.000    0.00
   5.300   10.14    3.01    0.14   0.000   0.200   0.000    0.00
   5.350   10.67    3.35    0.71   0.000   0.200   0.000    0.00
   5.400   10.86    6.74    0.04   0.000   0.200   0.000    0.00
   5.450   10.66    7.65    0.35   0.000   0.200   0.000    0.00
   5.500   10.04    6.09    0.22   0.000   0.200   0.000    0.00
   5.550   10.32    5.80    0.38   0.000   0.200   0.000    0.00
   5.600   10.29    8.59    0.06   0.000   0.200   0.000    0.00
   5.650   10.57    8.39   -0.05   0.000   0.200   0.000    0.00
   5.700   10.32   11.37    0.21   0.000   0.200   0.000    0.00
   5.750   10.18    8.31    0.23   0.000   0.200   0.000    0.00
   5.800   10.04    4.83   -0.79   0.000   0.200   0.000    0.00
   5.850    9.63    4.41   -0.89   0.000   0.200   0.000    0.00
   5.900    9.93    0.49   -0.54   0.000   0.200   0.000    0.00
   5.950   10.01    1.87    0.40   0.000   0.200   0.000    0.00
   6.000    9.62    1.07    0.50   0.000   0.200   0.000    0.00
   6.050    9.76   -1.03    0.42   0.000   0.200   0.000    0.00
   6.100   10.06   -3.08    0.17   0.000   0.200   0.000    0.00
   6.150    9.94   -3.33   -0.26   0.000   0.200   0.000    0.00
   6.200    9.77   -1.98   -0.35   0.000   0.200   0.000    0.00
   6.250   10.12   -1.92   -0.70   0.000   0.200   0.000    0.00
   6.300    9.74   -2.94   -0.55   0.000   0.200   0.000    0.00
   6.350    9.75    0.63   -0.45   0.000   0.200   0.000    0.00
   6.400   10.01   -1.95    0.45   0.000   0.200   0.000    0.00
   6.450    9.88   -2.90    0.67   0.000   0.200   0.000    0.00
   6.500    9.57   -1.34   -0.16   0.000   0.200   0.000    0.00
   6.550    9.13   -3.44    0.04   0.000   0.200   0.000    0.00
   6.600    9.11   -0.76    0.36   0.000   0.200   0.000    0.00
   6.650    9.77   -1.58    0.36   0.000   0.200   0.000    0.00
   6.700    9.81    0.12   -0.02   0.000   0.200   0.000    0.00
   6.750    9.70   -3.56    0.11   0.000   0.200   0.000    0.00
   6.800   10.27   -9.43    0.90   0.000   0.200   0.000    0.00
   6.850   10.84  -12.51    0.37   0.000   0.200   0.000    0.00
   6.900   10.63  -12.24   -0.02   0.000   0.200   0.000    0.00
   6.950   10.24  -10.43   -0.52   0.000   0.200   0.000    0.00
   7.000   10.82  -10.86   -0.21   0.000   0.200   0.000    0.00
   7.050   10.94  -10.29   -0.75   0.000   0.200   0.000    0.00
   7.100   10.30  -12.69   -1.22   0.000   0.200   0.000    0.00
   7.150   10.37  -10.84   -1.24   0.000   0.200   0.000    0.00
   7.200   10.43   -9.98   -1.05   0.000   0.200   0.000    0.00
   7.250   10.10   -5.76   -0.62   0.000   0.200   0.000    0.00
   7.300    9.01   -2.34   -0.91   0.000   0.200   0.000    0.00
   7.350    9.21   -5.59   -0.97   0.000   0.200   0.000    0.00
   7.400    9.06   -3.62   -1.44   0.000   0.200   0.000    0.00
   7.450    9.55   -2.60   -1.31   0.000   0.200   0.000    0.00
   7.500    9.47   -0.30   -1.02   0.000   0.200   0.000    0.00
   7.550    9.05   -0.19   -1.53   0.000   0.200   0.000    0.00
   7.600    9.25   -4.99   -0.79   0.000   0.200   0.000    0.00
   7.650    9.06   -3.09    0.17   0.000   0.200   0.000    0.00
   7.700    9.16   -4.35   -0.08   0.000   0.200   0.000    0.00
   7.750    9.26   -2.51   -0.51   0.000   0.200   0.000    0.00
   7.800    9.85   -3.05   -1.03   0.000   0.200   0.000    0.00
   7.850    9.29   -1.57   -1.51   0.000   0.200   0.000    0.00
   7.900    9.55   -0.54   -1.74   0.000   0.200   0.000    0.00
   7.950   10.30    1.59   -1.65   0.000   0.200   0.000    0.00
   8.000   10.12    2.40   -1.30   0.000   0.200   0.000    0.00
   8.050   10.35    2.30   -1.81   0.000   0.200   0.000    0.00
   8.100   10.34   -0.08   -1.97   0.000   0.200   0.000    0.00
   8.150   10.48   -0.39   -2.26   0.000   0.200   0.000    0.00
   8.200   10.92   -0.49   -1.97   0.000   0.200   0.000    0.00
   8.250   10.73    1.76   -1.57   0.000   0.200   0.000    0.00
   8.300    9.93   -2.33   -1.37   0.000   0.200   0.000    0.00
   8.350    9.32   -0.92   -1.19   0.000   0.200   0.000    0.00
   8.400    9.40    1.98   -1.46   0.000   0.200   0.000    0.00
   8.450    9.31    1.97   -1.92   0.000   0.200   0.000    0.00
   8.500    9.98    4.78   -1.78   0.000   0.200   0.000    0.00
   8.550   10.41    2.80   -1.57   0.000   0.200   0.000    0.00
   8.600   10.28    0.43   -1.35   0.000   0.200   0.000    0.00
   8.650   10.43    1.08   -0.88   0.000   0.200   0.000    0.00
   8.700   10.49   -0.90   -0.85   0.000   0.200   0.000    0.00
   8.750   10.25   -0.60   -1.39   0.000   0.200   0.000    0.00
   8.800   10.09    4.74   -1.17   0.000   0.200   0.000    0.00
   8.850   10.16    2.81   -1.04   0.000   0.200   0.000    0.00
   8.900   10.03    6.14   -1.28   0.000   0.200   0.000    0.00
   8.950   10.06    8.36   -1.49   0.000   0.200   0.000    0.00
   9.000    9.49    8.15   -1.33   0.000   0.200   0.000    0.00
   9.050    9.47    9.86   -1.18   0.000   0.200   0.000    0.00
   9.100    9.68    8.75   -1.56   0.000   0.200   0.000    0.00
   9.150   10.10    8.15   -0.90   0.000   0.200   0.000    0.00
   9.200   10.12    7.87   -0.38   0.000   0.200   0.000    0.00
   9.250   10.41    7.42   -0.69   0.000   0.200   0.000    0.00
   9.300   10.41    3.28   -1.73   0.000   0.200   0.000    0.00
   9.350   10.27    0.05   -1.50   0.000   0.200   0.000    0.00
   9.400   10.18   -2.61   -0.69   0.000   0.200   0.000    0.00
   9.450   10.48   -2.18   -0.13   0.000   0.200   0.000    0.00
   9.500   10.30   -0.29    0.11   0.000   0.200   0.000    0.00
   9.550   10.32   -1.96    0.19   0.000   0.200   0.000    0.00
   9.600   10.34   -0.28    0.26   0.000   0.200   0.000    0.00
   9.650   10.76    0.13   -0.76   0.000   0.200   0.000    0.00
   9.700   10.89    3.12   -1.13   0.000   0.200   0.000    0.00
   9.750   10.37    7.15   -1.15   0.000   0.200   0.000    0.00
   9.800    9.99    3.17   -0.11   0.000   0.200   0.000    0.00
   9.850   10.38    0.58   -0.41   0.000   0.200   0.000    0.00
   9.900   10.53   -5.01   -0.28   0.000   0.200   0.000    0.00
   9.950   10.68   -4.25    0.39   0.000   0.200   0.000    0.00
  10.000   10.63   -3.96    0.62   0.000   0.200   0.000    0.00
  10.050   10.91   -0.01    0.70   0.000   0.200   0.000    0.00
  10.100   11.03    2.78    0.44   0.000   0.200   0.000    0.00
  10.150   11.29    0.15    0.55   0.000   0.200   0.000    0.00
  10.200   11.12   -0.94    0.13   0.000   0.200   0.000    0.00
  10.250   11.09   -0.64   -0.60   0.000   0.200   0.000    0.00
  10.300   10.67   -1.62   -0.49   0.000   0.200   0.000    0.00
  10.350   10.64   -2.82   -0.51   0.000   0.200   0.000    0.00
  10.400   10.69   -3.88   -1.16   0.000   0.200   0.000    0.00
  10.450   10.36   -3.28   -1.29   0.000   0.200   0.000    0.00
  10.500   10.29   -2.67   -1.38   0.000   0.200   0.000    0.00
  10.550   10.39   -1.58   -1.12   0.000   0.200   0.000    0.00
  10.600   10.63   -2.72   -0.83   0.000   0.200   0.000    0.00
  10.650   10.40   -0.11   -0.96   0.000   0.200   0.000    0.00
  10.700   10.63    0.99   -0.40   0.000   0.200   0.000    0.00
  10.750   11.06    0.33   -0.27   0.000   0.200   0.000    0.00
  10.800   10.64    2.56   -0.88   0.000   0.200   0.000    0.00
  10.850   10.35    2.81   -1.02   0.000   0.200   0.000    0.00
  10.900   10.19    4.29   -0.92   0.000   0.200   0.000    0.00
  10.950    9.40    5.83   -1.03   0.000   0.200   0.000    0.00
  11.000    9.54   -1.28   -1.06   0.000   0.200   0.000    0.00
  11.050   10.08   -1.64   -0.47   0.000   0.200   0.000    0.00
  11.100   10.55   -0.81   -0.42   0.000   0.200   0.000    0.00
  11.150   10.64   -1.29    0.62   0.000   0.200   0.000    0.00
  11.200   10.52   -1.15    0.42   0.000   0.200   0.000    0.00
  11.250   10.45   -0.72   -0.13   0.000   0.200   0.000    0.00
  11.300   10.48   -0.59   -0.60   0.000   0.200   0.000    0.00
  11.350    9.90   -5.29   -0.89   0.000   0.200   0.000    0.00
  11.400    9.90   -2.75   -0.76   0.000   0.200   0.000    0.00
  11.450    9.85   -7.36   -0.87   0.000   0.200   0.000    0.00
  11.500    9.85   -9.19   -0.26   0.000   0.200   0.000    0.00
  11.550    9.12   -4.87   -1.03   0.000   0.200   0.000    0.00
  11.600    8.49   -6.23   -0.75   0.000   0.200   0.000    0.00
  11.650    9.08   -6.01   -0.89   0.000   0.200   0.000    0.00
  11.700    9.42   -9.10   -1.14   0.000   0.200   0.000    0.00
  11.750    8.87   -9.20   -1.00   0.000   0.200   0.000    0.00
  11.800    8.53  -12.45   -0.79   0.000   0.200   0.000    0.00
  11.850    9.04  -12.87   -0.54   0.000   0.200   0.000    0.00
  11.900    8.89  -10.59   -0.54   0.000   0.200   0.000    0.00
  11.950    8.42  -14.91   -0.48   0.000   0.200   0.000    0.00
  12.000    8.98  -14.79   -1.12   0.000   0.200   0.000    0.00
  12.050    8.99  -12.48   -0.97   0.000   0.200   0.000    0.00
  12.100    8.74  -12.12   -0.90   0.000   0.200   0.000    0.00
  12.150    8.98  -14.46   -1.18   0.000   0.200   0.000    0.00
  12.200    8.46  -17.75   -1.36   0.000   0.200   0.000    0.00
  12.250    8.87  -17.82   -2.16   0.000   0.200   0.000    0.00
  12.300    8.49  -15.06   -1.72   0.000   0.200   0.000    0.00
  12.350    8.23  -10.90   -2.81   0.000   0.200   0.000    0.00
  12.400    8.55  -17.60   -2.51   0.000   0.200   0.000    0.00
  12.450    8.69  -18.88   -1.56   0.000   0.200   0.000    0.00
  12.500    8.84  -19.18   -1.10   0.000   0.200   0.000    0.00
  12.550    8.71  -18.45   -0.56   0.000   0.200   0.000    0.00
  12.600    9.02  -14.53   -0.95   0.000   0.200   0.000    0.00
  12.650    9.22  -16.31   -0.91   0.000   0.200   0.000    0.00
  12.700    9.16  -14.66   -0.51   0.000   0.200   0.000    0.00
  12.750    8.66  -14.01   -0.48   0.000   0.200   0.000    0.00
  12.800    8.48  -14.74   -0.47   0.000   0.200   0.000    0.00
  12.850    8.58  -15.59   -0.51   0.000   0.200   0.000    0.00
  12.900    9.12  -19.41    0.08   0.000   0.200   0.000    0.00
  12.950    8.74  -17.84   -0.52   0.000   0.200   0.000    0.00
  13.000    8.92  -18.98   -0.49   0.000   0.200   0.000    0.00
  13.050    9.43  -19.15   -0.26   0.000   0.200   0.000    0.00
  13.100    9.47  -14.01   -0.60   0.000   0.200   0.000    0.00
  13.150    9.07  -14.04   -0.48   0.000   0.200   0.000    0.00
  13.200    8.72  -16.33   -0.36   0.000   0.200   0.000    0.00
  13.250    9.05  -17.65   -0.08   0.000   0.200   0.000    0.00
  13.300    9.01  -17.30   -0.51   0.000   0.200   0.000    0.00
  13.350    9.01  -16.53   -0.91   0.000   0.200   0.000    0.00
  13.400    9.72  -11.82   -0.61   0.000   0.200   0.000    0.00
  13.450    9.76  -15.02   -0.36   0.000   0.200   0.000    0.00
  13.500    9.50  -16.04   -0.34   0.000   0.200   0.000    0.00
  13.550    9.52  -14.91   -0.52   0.000   0.200   0.000    0.00
  13.600    9.72  -11.25   -0.19   0.000   0.200   0.000    0.00
  13.650    9.67   -9.07   -0.47   0.000   0.200   0.000    0.00
  13.700    9.80   -3.17   -0.82   0.000   0.200   0.000    0.00
  13.750    9.72   -2.17   -0.92   0.000   0.200   0.000    0.00
  13.800    9.16    3.12   -1.15   0.000   0.200   0.000    0.00
  13.850    8.98   -2.11   -1.16   0.000   0.200   0.000    0.00
  13.900    9.18   -5.33   -1.17   0.000   0.200   0.000    0.00
  13.950    8.71   -4.18   -1.15   0.000   0.200   0.000    0.00
  14.000    9.37   -2.51   -1.29   0.000   0.200   0.000    0.00
  14.050    9.37   -0.98   -1.91   0.000   0.200   0.000    0.00
  14.100    9.67   -1.65   -1.58   0.000   0.200   0.000    0.00
  14.150    9.74    0.27   -2.20   0.000   0.200   0.000    0.00
  14.200    9.86   -1.20   -2.06   0.000   0.200   0.000    0.00
  14.250    9.35   -1.20   -1.82   0.000   0.200   0.000    0.00
  14.300    9.34    0.42   -2.09   0.000   0.200   0.000    0.00
  14.350    9.78    3.37   -2.50   0.000   0.200   0.000    0.00
  14.400   10.52    2.81   -2.69   0.000   0.200   0.000    0.00
  14.450   10.07   -0.89   -2.33   0.000   0.200   0.000    0.00
  14.500    9.40   -2.45   -2.12   0.000   0.200   0.000    0.00
  14.550    9.42   -2.73   -2.10   0.000   0.200   0.000    0.00
  14.600    9.48   -5.16   -2.23   0.000   0.200   0.000    0.00
  14.650    9.57   -5.31   -2.11   0.000   0.200   0.000    0.00
  14.700    9.65   -8.25   -1.82   0.000   0.200   0.000    0.00
  14.750   10.03   -9.12   -2.18   0.000   0.200   0.000    0.00
  14.800   10.53  -10.24   -2.21   0.000   0.200   0.000    0.00
  14.850   10.44  -10.72   -1.57   0.000   0.200   0.000    0.00
  14.900   10.49   -8.52   -1.68   0.000   0.200   0.000    0.00
  14.950   10.20   -6.83   -1.42   0.000   0.200   0.000    0.00
  15.000    9.81   -5.81   -0.46   0.000   0.200   0.000    0.00
  15.050   10.31   -7.28   -0.40   0.000   0.200   0.000    0.00
  15.100   10.82   -9.53   -0.21   0.000   0.200   0.000    0.00
  15.150    9.98  -11.01    0.34   0.000   0.200   0.000    0.00
  15.200    9.40  -10.40    0.02   0.000   0.200   0.000    0.00
  15.250    9.91   -8.57   -0.47   0.000   0.200   0.000    0.00
  15.300   10.50   -8.11    0.12   0.000   0.200   0.000    0.00
  15.350   10.38  -12.53    0.75   0.000   0.200   0.000    0.00
  15.400   10.98  -10.14    0.11   0.000   0.200   0.000    0.00
  15.450   10.78   -5.54   -0.13   0.000   0.200   0.000    0.00
  15.500   10.80   -6.47   -0.34   0.000   0.200   0.000    0.00
  15.550   10.85   -3.07   -0.19   0.000   0.200   0.000    0.00
  15.600   10.53   -3.10   -0.78   0.000   0.200   0.000    0.00
  15.650   10.88   -4.06   -0.62   0.000   0.200   0.000    0.00
  15.700   11.05   -2.85   -0.54   0.000   0.200   0.000    0.00
  15.750   10.91   -3.42   -0.44   0.000   0.200   0.000    0.00
  15.800   10.94   -2.41   -0.45   0.000   0.200   0.000    0.00
  15.850   11.35   -0.39    0.01   0.000   0.200   0.000    0.00
  15.900   11.46   -2.93    0.20   0.000   0.200   0.000    0.00
  15.950   11.91   -3.70   -0.14   0.000   0.200   0.000    0.00
  16.000   12.19   -1.62   -0.60   0.000   0.200   0.000    0.00
  16.050   12.89   -2.48   -1.61   0.000   0.200   0.000    0.00
  16.100   12.57   -3.09   -1.79   0.000   0.200   0.000    0.00
  16.150   12.57   -0.99   -1.66   0.000   0.200   0.000    0.00
  16.200   12.98   -0.08   -1.19   0.000   0.200   0.000    0.00
  16.250   12.85    0.45   -2.01   0.000   0.200   0.000    0.00
  16.300   12.31   -0.37   -2.07   0.000   0.200   0.000    0.00
  16.350   12.24    2.44   -1.97   0.000   0.200   0.000    0.00
  16.400   11.91    1.98   -2.08   0.000   0.200   0.000    0.00
  16.450   11.36   -0.64   -2.28   0.000   0.200   0.000    0.00
  16.500   10.86   -0.53   -2.07   0.000   0.200   0.000    0.00
  16.550   11.12    1.27   -1.97   0.000   0.200   0.000    0.00
  16.600   11.10    4.00   -1.73   0.000   0.200   0.000    0.00
  16.650   10.64    2.70   -1.70   0.000   0.200   0.000    0.00
  16.700   10.40    2.84   -1.33   0.000   0.200   0.000    0.00
  16.750   10.48    5.32   -1.04   0.000   0.200   0.000    0.00
  16.800   11.17    6.28   -1.16   0.000   0.200   0.000    0.00
  16.850   11.12    6.71   -0.78   0.000   0.200   0.000    0.00
  16.900   11.03    9.88   -1.21   0.000   0.200   0.000    0.00
  16.950   10.52    8.82   -1.14   0.000   0.200   0.000    0.00
  17.000   10.56    8.26   -0.91   0.000   0.200   0.000    0.00
  17.050   10.58   10.36   -1.00   0.000   0.200   0.000    0.00
  17.100   10.44    7.86   -0.31   0.000   0.200   0.000    0.00
  17.150   10.05    3.24   -0.27   0.000   0.200   0.000    0.00
  17.200   10.07    2.90    0.08   0.000   0.200   0.000    0.00
  17.250    9.95    5.60    0.53   0.000   0.200   0.000    0.00
  17.300    9.64    3.99   -0.20   0.000   0.200   0.000    0.00
  17.350    9.93    4.45   -0.18   0.000   0.200   0.000    0.00
  17.400   10.27    2.20   -0.21   0.000   0.200   0.000    0.00
  17.450    9.76    1.26    0.38   0.000   0.200   0.000    0.00
  17.500   10.02   -0.80    0.35   0.000   0.200   0.000    0.00
  17.550   10.56   -0.81    0.77   0.000   0.200   0.000    0.00
  17.600   10.71   -4.79    0.39   0.000   0.200   0.000    0.00
  17.650   10.90   -5.43    0.46   0.000   0.200   0.000    0.00
  17.700   10.31   -0.77    1.04   0.000   0.200   0.000    0.00
  17.750   10.56   -1.03    0.43   0.000   0.200   0.000    0.00
  17.800   10.57    2.40    0.31   0.000   0.200   0.000    0.00
  17.850   10.66    0.82    0.08   0.000   0.200   0.000    0.00
  17.900   10.92    0.58    0.03   0.000   0.200   0.000    0.00
  17.950   11.11    1.22    0.20   0.000   0.200   0.000    0.00
  18.000   10.87    4.00    0.44   0.000   0.200   0.000    0.00
  18.050   11.04    4.06    0.45   0.000   0.200   0.000    0.00
  18.100   11.37    3.45    0.09   0.000   0.200   0.000    0.00
  18.150   11.08    6.59   -0.15   0.000   0.200   0.000    0.00
  18.200   11.35    5.11    0.07   0.000   0.200   0.000    0.00
  18.250   11.23    2.96    0.42   0.000   0.200   0.000    0.00
  18.300   11.22    3.10    0.08   0.000   0.200   0.000    0.00
  18.350   10.35    3.05    0.31   0.000   0.200   0.000    0.00
  18.400   10.84    6.34    0.23   0.000   0.200   0.000    0.00
  18.450   11.03    6.35    0.35   0.000   0.200   0.000    0.00
  18.500   10.82    4.29    1.08   0.000   0.200   0.000    0.00
  18.550   10.80    2.16    0.98   0.000   0.200   0.000    0.00
  18.600   10.60    2.94    1.27   0.000   0.200   0.000    0.00
  18.650   10.19    3.31    0.79   0.000   0.200   0.000    0.00
  18.700    9.89    3.97    0.42   0.000   0.200   0.000    0.00
  18.750    9.99    4.66    0.53   0.000   0.200   0.000    0.00
  18.800    9.81    5.29    0.35   0.000   0.200   0.000    0.00
  18.850   10.01    3.52    0.20   0.000   0.200   0.000    0.00
  18.900   10.18    5.03    0.72   0.000   0.200   0.000    0.00
  18.950   10.64    5.80    1.34   0.000   0.200   0.000    0.00
  19.000   11.01    8.83    0.93   0.000   0.200   0.000    0.00
  19.050   10.84    7.93    0.76   0.000   0.200   0.000    0.00
  19.100   11.19    7.02    0.36   0.000   0.200   0.000    0.00
  19.150   11.44    6.31    0.16   0.000   0.200   0.000    0.00
  19.200   11.48    5.74    0.15   0.000   0.200   0.000    0.00
  19.250   11.11    7.68   -0.02   0.000   0.200   0.000    0.00
  19.300   10.38    2.94   -0.41   0.000   0.200   0.000    0.00
  19.350   10.76    4.30   -0.32   0.000   0.200   0.000    0.00
  19.400   10.76    2.71   -0.19   0.000   0.200   0.000    0.00
  19.450   10.34    1.45    0.44   0.000   0.200   0.000    0.00
  19.500   10.61    2.35    0.79   0.000   0.200   0.000    0.00
  19.550   10.39    5.07    1.58   0.000   0.200   0.000    0.00
  19.600   10.45    6.14    2.21   0.000   0.200   0.000    0.00
  19.650   10.61    5.82    2.81   0.000   0.200   0.000    0.00
  19.700   11.00    4.21    2.41   0.000   0.200   0.000    0.00
  19.750   10.48    2.35    2.50   0.000   0.200   0.000    0.00
  19.800   10.36    6.20    2.89   0.000   0.200   0.000    0.00
  19.850   10.44    2.29    2.07   0.000   0.200   0.000    0.00
  19.900   10.51   -0.67    1.85   0.000   0.200   0.000    0.00
  19.950   10.40   -1.15    1.81   0.000   0.200   0.000    0.00
  20.000   10.39   -2.19    1.49   0.000   0.200   0.000    0.00
  20.050   10.08   -1.45    1.36   0.000   0.200   0.000    0.00
  20.100    9.77   -3.66    1.33   0.000   0.200   0.000    0.00
  20.150    9.58   -5.58    1.38   0.000   0.200   0.000    0.00
  20.200    9.73   -7.09    1.54   0.000   0.200   0.000    0.00
  20.250    9.79   -9.77    1.51   0.000   0.200   0.000    0.00
  20.300    9.82   -8.68    0.92   0.000   0.200   0.000    0.00
  20.350   10.24   -8.41    1.35   0.000   0.200   0.000    0.00
  20.400   10.44   -7.26    1.63   0.000   0.200   0.000    0.00
  20.450   10.34   -6.75    0.86   0.000   0.200   0.000    0.00
  20.500   10.53   -7.01    0.76   0.000   0.200   0.000    0.00
  20.550   10.30   -8.11    1.22   0.000   0.200   0.000    0.00
  20.600   10.45   -5.71    0.38   0.000   0.200   0.000    0.00
  20.650   10.19   -6.07    1.06   0.000   0.200   0.000    0.00
  20.700    9.23   -2.22    1.08   0.000   0.200   0.000    0.00
  20.750    9.56   -3.66    0.95   0.000   0.200   0.000    0.00
  20.800    9.60   -3.56    1.17   0.000   0.200   0.000    0.00
  20.850    9.47   -2.27    1.15   0.000   0.200   0.000    0.00
  20.900   10.01   -7.76    1.63   0.000   0.200   0.000    0.00
  20.950    9.80   -4.26    1.25   0.000   0.200   0.000    0.00
  21.000    9.37   -2.08    0.78   0.000   0.200   0.000    0.00
  21.050    9.23   -5.20   -0.12   0.000   0.200   0.000    0.00
  21.100    9.63   -3.26   -0.15   0.000   0.200   0.000    0.00
  21.150    9.41   -2.16    0.63   0.000   0.200   0.000    0.00
  21.200    8.81    0.26    0.80   0.000   0.200   0.000    0.00
  21.250    9.66    3.04    0.99   0.000   0.200   0.000    0.00
  21.300   10.14    4.00    1.55   0.000   0.200   0.000    0.00
  21.350    9.90    3.33    1.56   0.000   0.200   0.000    0.00
  21.400   10.17    3.21    0.99   0.000   0.200   0.000    0.00
  21.450   10.28    3.67    0.70   0.000   0.200   0.000    0.00
  21.500   10.94    2.48    0.02   0.000   0.200   0.000    0.00
  21.550   11.42    2.86    0.28   0.000   0.200   0.000    0.00
  21.600   11.64    2.68   -0.01   0.000   0.200   0.000    0.00
  21.650   11.13    4.75   -0.07   0.000   0.200   0.000    0.00
  21.700   11.32    6.13   -0.35   0.000   0.200   0.000    0.00
  21.750   11.86    4.02   -0.80   0.000   0.200   0.000    0.00
  21.800   12.34    2.95   -1.09   0.000   0.200   0.000    0.00
  21.850   12.84    3.68   -0.65   0.000   0.200   0.000    0.00
  21.900   12.93    4.54   -0.28   0.000   0.200   0.000    0.00
  21.950   12.92   -0.11   -0.59   0.000   0.200   0.000    0.00
  22.000   12.47   -1.77   -0.16   0.000   0.200   0.000    0.00
  22.050   12.28   -2.28   -0.39   0.000   0.200   0.000    0.00
  22.100   11.58    1.07   -0.76   0.000   0.200   0.000    0.00
  22.150   11.70    1.11   -1.01   0.000   0.200   0.000    0.00
  22.200   11.76   -1.93   -0.54   0.000   0.200   0.000    0.00
  22.250   11.68   -0.57   -0.47   0.000   0.200   0.000    0.00
  22.300   12.05   -0.32   -0.49   0.000   0.200   0.000    0.00
  22.350   12.35   -2.50    0.57   0.000   0.200   0.000    0.00