! This hub-height wind-speed file was generated by TurbSim (v1.06.00, 21-Sep-2012) on 16-Jun-2018 at 18:35:10.
!
! The requested statistics for this data were:
!    Mean Total Wind Speed =   21.000 m/s
!    Turbulence Intensity  =   18.325%
!
!   Time  HorSpd  WndDir  VerSpd  HorShr  VerShr  LnVShr  GstSpd
!  (sec)   (m/s)   (deg)   (m/s)     (-)     (-)     (-)   (m/s)
   0.000   24.79   21.30   -0.60   0.000   0.200   0.000    0.00
   0.050   25.91   21.89   -0.94   0.000   0.200   0.000    0.00
   0.100   24.84   16.41   -0.96   0.000   0.200   0.000    0.00
   0.150   25.26   17.03   -0.48   0.000   0.200   0.000    0.00
   0.200   26.69   18.52    0.24   0.000   0.200   0.000    0.00
   0.250   26.97   14.49   -0.20   0.000   0.200   0.000    0.00
   0.300   26.70   13.79   -0.28   0.000   0.200   0.000    0.00
   0.350   27.35   10.90    0.30   0.000   0.200   0.000    0.00
   0.400   29.19   12.13    0.61   0.000   0.200   0.000    0.00
   0.450   28.91   10.33    0.93   0.000   0.200   0.000    0.00
   0.500   28.41    7.89    1.97   0.000   0.200   0.000    0.00
   0.550   27.56   11.70    2.38   0.000   0.200   0.000    0.00
   0.600   27.45   11.69    2.12   0.000   0.200   0.000    0.00
   0.650   27.15   11.52    0.44   0.000   0.200   0.000    0.00
   0.700   28.07   14.07   -0.93   0.000   0.200   0.000    0.00
   0.750   29.32   16.22   -0.55   0.000   0.200   0.000    0.00
   0.800   29.71   14.99   -2.38   0.000   0.200   0.000    0.00
   0.850   28.62   16.17   -3.07   0.000   0.200   0.000    0.00
   0.900   26.54   12.95   -4.02   0.000   0.200   0.000    0.00
   0.950   25.11   13.66   -2.72   0.000   0.200   0.000    0.00
   1.000   26.45   12.44   -1.41   0.000   0.200   0.000    0.00
   1.050   26.02   12.06   -2.45   0.000   0.200   0.000    0.00
   1.100   25.44   13.51   -2.55   0.000   0.200   0.000    0.00
   1.150   25.70   11.37   -3.18   0.000   0.200   0.000    0.00
   1.200   25.93   11.43   -2.78   0.000   0.200   0.000    0.00
   1.250   25.84   10.30   -4.00   0.000   0.200   0.000    0.00
   1.300   26.12   11.25   -3.26   0.000   0.200   0.000    0.00
   1.350   25.21   11.42   -2.44   0.000   0.200   0.000    0.00
   1.400   25.17   11.32   -1.49   0.000   0.200   0.000    0.00
   1.450   26.19   11.18   -2.12   0.000   0.200   0.000    0.00
   1.500   26.00   10.00   -2.22   0.000   0.200   0.000    0.00
   1.550   26.75   12.90   -2.06   0.000   0.200   0.000    0.00
   1.600   26.43   11.73   -1.97   0.000   0.200   0.000    0.00
   1.650   25.66   13.95   -3.71   0.000   0.200   0.000    0.00
   1.700   25.51   15.83   -2.79   0.000   0.200   0.000    0.00
   1.750   25.07   15.76   -2.72   0.000   0.200   0.000    0.00
   1.800   25.32   15.13   -2.16   0.000   0.200   0.000    0.00
   1.850   25.31   11.53   -2.59   0.000   0.200   0.000    0.00
   1.900   24.40    9.25   -3.65   0.000   0.200   0.000    0.00
   1.950   24.88   10.33   -2.58   0.000   0.200   0.000    0.00
   2.000   24.59   10.42   -1.97   0.000   0.200   0.000    0.00
   2.050   24.06   11.30   -0.76   0.000   0.200   0.000    0.00
   2.100   23.09   10.22    0.21   0.000   0.200   0.000    0.00
   2.150   23.52   12.03    1.20   0.000   0.200   0.000    0.00
   2.200   22.13    9.79    1.96   0.000   0.200   0.000    0.00
   2.250   22.56   10.15    3.24   0.000   0.200   0.000    0.00
   2.300   22.81    9.79    1.63   0.000   0.200   0.000    0.00
   2.350   22.50   10.60    2.09   0.000   0.200   0.000    0.00
   2.400   24.12    9.12    2.53   0.000   0.200   0.000    0.00
   2.450   23.93   11.10    2.90   0.000   0.200   0.000    0.00
   2.500   23.34    9.55    2.34   0.000   0.200   0.000    0.00
   2.550   23.24    9.48    1.13   0.000   0.200   0.000    0.00
   2.600   22.88    7.24    1.83   0.000   0.200   0.000    0.00
   2.650   22.85    6.47    0.65   0.000   0.200   0.000    0.00
   2.700   23.95    6.88    0.00   0.000   0.200   0.000    0.00
   2.750   23.30    7.17    1.48   0.000   0.200   0.000    0.00
   2.800   21.05    4.67    0.20   0.000   0.200   0.000    0.00
   2.850   21.40    0.70   -0.49   0.000   0.200   0.000    0.00
   2.900   21.39    0.38   -0.70   0.000   0.200   0.000    0.00
   2.950   22.96   -0.99   -0.04   0.000   0.200   0.000    0.00
   3.000   23.90   -2.47    0.85   0.000   0.200   0.000    0.00
   3.050   23.69   -3.39    1.18   0.000   0.200   0.000    0.00
   3.100   23.89   -3.68    2.83   0.000   0.200   0.000    0.00
   3.150   24.39   -2.85    1.88   0.000   0.200   0.000    0.00
   3.200   24.14   -2.29    1.45   0.000   0.200   0.000    0.00
   3.250   22.64   -5.99    2.87   0.000   0.200   0.000    0.00
   3.300   22.01   -5.84    4.28   0.000   0.200   0.000    0.00
   3.350   21.62   -4.88    3.38   0.000   0.200   0.000    0.00
   3.400   21.43   -3.53    2.48   0.000   0.200   0.000    0.00
   3.450   21.78   -4.37    2.11   0.000   0.200   0.000    0.00
   3.500   20.85   -1.90    0.96   0.000   0.200   0.000    0.00
   3.550   20.72   -4.89    1.93   0.000   0.200   0.000    0.00
   3.600   20.30   -3.39    0.65   0.000   0.200   0.000    0.00
   3.650   21.65   -2.53    1.23   0.000   0.200   0.000    0.00
   3.700   21.33   -3.51    1.90   0.000   0.200   0.000    0.00
   3.750   21.39   -4.66    2.35   0.000   0.200   0.000    0.00
   3.800   23.37   -4.58    1.70   0.000   0.200   0.000    0.00
   3.850   23.97   -2.05    0.71   0.000   0.200   0.000    0.00
   3.900   23.93   -1.40   -0.90   0.000   0.200   0.000    0.00
   3.950   23.55   -3.44   -1.64   0.000   0.200   0.000    0.00
   4.000   23.16   -2.78   -0.60   0.000   0.200   0.000    0.00
   4.050   22.74   -0.45   -0.96   0.000   0.200   0.000    0.00
   4.100   22.07   -4.12   -2.74   0.000   0.200   0.000    0.00
   4.150   21.86   -3.44   -2.27   0.000   0.200   0.000    0.00
   4.200   21.31   -0.79   -2.66   0.000   0.200   0.000    0.00
   4.250   20.59   -0.27   -3.49   0.000   0.200   0.000    0.00
   4.300   20.87   -2.00   -1.85   0.000   0.200   0.000    0.00
   4.350   20.28   -5.38   -0.43   0.000   0.200   0.000    0.00
   4.400   21.61   -8.45   -0.38   0.000   0.200   0.000    0.00
   4.450   21.77   -8.50   -0.07   0.000   0.200   0.000    0.00
   4.500   20.21   -6.85   -0.39   0.000   0.200   0.000    0.00
   4.550   20.19   -3.12    1.18   0.000   0.200   0.000    0.00
   4.600   20.17   -2.54    0.49   0.000   0.200   0.000    0.00
   4.650   20.22   -2.43    0.48   0.000   0.200   0.000    0.00
   4.700   21.05   -3.48    0.12   0.000   0.200   0.000    0.00
   4.750   20.60   -2.62   -0.64   0.000   0.200   0.000    0.00
   4.800   20.14   -1.83    0.22   0.000   0.200   0.000    0.00
   4.850   20.60   -0.53   -0.54   0.000   0.200   0.000    0.00
   4.900   21.25   -0.63   -0.92   0.000   0.200   0.000    0.00
   4.950   22.20    3.06   -0.46   0.000   0.200   0.000    0.00
   5.000   21.34    2.50   -1.38   0.000   0.200   0.000    0.00
   5.050   21.58    6.89   -1.41   0.000   0.200   0.000    0.00
   5.100   21.61    6.23   -3.31   0.000   0.200   0.000    0.00
   5.150   22.40    1.78   -3.30   0.000   0.200   0.000    0.00
   5.200   22.06    1.46   -3.60   0.000   0.200   0.000    0.00
   5.250   22.33    4.85   -3.21   0.000   0.200   0.000    0.00
   5.300   22.61    4.45   -2.25   0.000   0.200   0.000    0.00
   5.350   23.35    2.76   -1.74   0.000   0.200   0.000    0.00
   5.400   22.52    3.22   -1.23   0.000   0.200   0.000    0.00
   5.450   22.55    3.19   -1.85   0.000   0.200   0.000    0.00
   5.500   22.61    1.84   -1.89   0.000   0.200   0.000    0.00
   5.550   21.19    6.89   -3.28   0.000   0.200   0.000    0.00
   5.600   20.32    9.02   -3.42   0.000   0.200   0.000    0.00
   5.650   20.36    9.27   -3.39   0.000   0.200   0.000    0.00
   5.700   20.57    9.47   -1.24   0.000   0.200   0.000    0.00
   5.750   20.17   11.59   -0.04   0.000   0.200   0.000    0.00
   5.800   20.35   11.73   -0.95   0.000   0.200   0.000    0.00
   5.850   20.73   14.57   -0.53   0.000   0.200   0.000    0.00
   5.900   21.34   17.66   -0.47   0.000   0.200   0.000    0.00
   5.950   21.48   17.81   -0.37   0.000   0.200   0.000    0.00
   6.000   21.26   20.06    0.47   0.000   0.200   0.000    0.00
   6.050   22.15   22.67   -0.30   0.000   0.200   0.000    0.00
   6.100   21.51   20.45   -0.63   0.000   0.200   0.000    0.00
   6.150   21.52   15.93   -0.24   0.000   0.200   0.000    0.00
   6.200   21.06   13.37   -0.72   0.000   0.200   0.000    0.00
   6.250   20.86   11.67   -0.73   0.000   0.200   0.000    0.00
   6.300   20.31   13.81   -0.03   0.000   0.200   0.000    0.00
   6.350   19.98   16.02   -0.54   0.000   0.200   0.000    0.00
   6.400   20.62   16.57   -0.27   0.000   0.200   0.000    0.00
   6.450   20.55   13.64   -0.55   0.000   0.200   0.000    0.00
   6.500   21.71   13.78   -0.91   0.000   0.200   0.000    0.00
   6.550   20.31   11.64   -1.79   0.000   0.200   0.000    0.00
   6.600   21.58   11.68   -1.12   0.000   0.200   0.000    0.00
   6.650   21.67   10.21   -1.18   0.000   0.200   0.000    0.00
   6.700   20.71    9.22   -2.34   0.000   0.200   0.000    0.00
   6.750   20.30   12.81   -0.53   0.000   0.200   0.000    0.00
   6.800   20.04    8.62   -0.57   0.000   0.200   0.000    0.00
   6.850   20.61    9.61   -0.44   0.000   0.200   0.000    0.00
   6.900   21.30   11.12   -0.17   0.000   0.200   0.000    0.00
   6.950   21.27   14.11   -0.37   0.000   0.200   0.000    0.00
   7.000   21.79   16.09   -1.33   0.000   0.200   0.000    0.00
   7.050   21.90   17.37   -0.34   0.000   0.200   0.000    0.00
   7.100   22.50   17.16   -0.17   0.000   0.200   0.000    0.00
   7.150   22.60   16.67    0.75   0.000   0.200   0.000    0.00
   7.200   22.97   15.99    1.05   0.000   0.200   0.000    0.00
   7.250   22.69   15.44    0.55   0.000   0.200   0.000    0.00
   7.300   22.88   16.48   -0.17   0.000   0.200   0.000    0.00
   7.350   22.80   13.31    0.20   0.000   0.200   0.000    0.00
   7.400   21.17   16.21    0.10   0.000   0.200   0.000    0.00
   7.450   21.59   16.61   -1.43   0.000   0.200   0.000    0.00
   7.500   22.34   16.92   -0.57   0.000   0.200   0.000    0.00
   7.550   22.43   21.58   -0.40   0.000   0.200   0.000    0.00
   7.600   22.50   22.22   -1.69   0.000   0.200   0.000    0.00
   7.650   22.90   21.19   -0.90   0.000   0.200   0.000    0.00
   7.700   23.43   20.89   -0.67   0.000   0.200   0.000    0.00
   7.750   22.27   21.94   -0.49   0.000   0.200   0.000    0.00
   7.800   22.83   22.83   -0.49   0.000   0.200   0.000    0.00
   7.850   22.16   21.32   -2.47   0.000   0.200   0.000    0.00
   7.900   22.15   20.81   -2.61   0.000   0.200   0.000    0.00
   7.950   21.77   20.77   -1.81   0.000   0.200   0.000    0.00
   8.000   21.04   18.37   -1.96   0.000   0.200   0.000    0.00
   8.050   20.39   16.52   -2.11   0.000   0.200   0.000    0.00
   8.100   21.24   16.58   -2.39   0.000   0.200   0.000    0.00
   8.150   21.44   16.14   -1.78   0.000   0.200   0.000    0.00
   8.200   21.02   14.27   -1.52   0.000   0.200   0.000    0.00
   8.250   21.03   11.75   -1.41   0.000   0.200   0.000    0.00
   8.300   21.37   12.93   -1.51   0.000   0.200   0.000    0.00
   8.350   21.30   13.23   -1.87   0.000   0.200   0.000    0.00
   8.400   21.67   14.27   -2.27   0.000   0.200   0.000    0.00
   8.450   21.34   10.37   -3.43   0.000   0.200   0.000    0.00
   8.500   22.35   11.53   -2.77   0.000   0.200   0.000    0.00
   8.550   22.40    9.82   -2.20   0.000   0.200   0.000    0.00
   8.600   22.66    8.95    0.41   0.000   0.200   0.000    0.00
   8.650   24.22    8.21    1.02   0.000   0.200   0.000    0.00
   8.700   24.68    5.33    1.95   0.000   0.200   0.000    0.00
   8.750   24.90    5.91    2.15   0.000   0.200   0.000    0.00
   8.800   24.60   10.13    1.13   0.000   0.200   0.000    0.00
   8.850   24.59   10.25    0.03   0.000   0.200   0.000    0.00
   8.900   25.34   13.50   -0.53   0.000   0.200   0.000    0.00
   8.950   25.25   12.93   -0.62   0.000   0.200   0.000    0.00
   9.000   25.22   11.39    0.62   0.000   0.200   0.000    0.00
   9.050   25.25   10.21   -0.21   0.000   0.200   0.000    0.00
   9.100   25.70    8.20   -0.50   0.000   0.200   0.000    0.00
   9.150   25.55    7.77    0.15   0.000   0.200   0.000    0.00
   9.200   24.94    6.95    0.00   0.000   0.200   0.000    0.00
   9.250   24.42    9.64   -0.66   0.000   0.200   0.000    0.00
   9.300   23.94    6.76   -1.15   0.000   0.200   0.000    0.00
   9.350   23.75    3.93   -0.12   0.000   0.200   0.000    0.00
   9.400   23.73    1.41    0.68   0.000   0.200   0.000    0.00
   9.450   23.29    0.01   -0.14   0.000   0.200   0.000    0.00
   9.500   24.14    3.15   -0.34   0.000   0.200   0.000    0.00
   9.550   24.33    6.69   -0.60   0.000   0.200   0.000    0.00
   9.600   24.47    6.73   -1.74   0.000   0.200   0.000    0.00
   9.650   24.65    5.44   -0.95   0.000   0.200   0.000    0.00
   9.700   25.11    2.46   -0.91   0.000   0.200   0.000    0.00
   9.750   23.31    3.54   -2.03   0.000   0.200   0.000    0.00
   9.800   23.79    5.98   -1.56   0.000   0.200   0.000    0.00
   9.850   22.57    6.58   -1.41   0.000   0.200   0.000    0.00
   9.900   21.85    1.71   -2.02   0.000   0.200   0.000    0.00
   9.950   22.36    2.74   -2.56   0.000   0.200   0.000    0.00
  10.000   22.33    4.06   -1.40   0.000   0.200   0.000    0.00
  10.050   21.89    2.75   -0.19   0.000   0.200   0.000    0.00
  10.100   21.84    1.83   -1.35   0.000   0.200   0.000    0.00
  10.150   21.02    3.72   -1.88   0.000   0.200   0.000    0.00
  10.200   21.51    4.31   -3.03   0.000   0.200   0.000    0.00
  10.250   21.38    2.95   -2.27   0.000   0.200   0.000    0.00
  10.300   20.92    4.23   -1.04   0.000   0.200   0.000    0.00
  10.350   19.66    6.37   -0.97   0.000   0.200   0.000    0.00
  10.400   19.95    9.00   -0.41   0.000   0.200   0.000    0.00
  10.450   20.93    7.10   -1.37   0.000   0.200   0.000    0.00
  10.500   22.41    9.85   -1.67   0.000   0.200   0.000    0.00
  10.550   22.38    8.65   -3.40   0.000   0.200   0.000    0.00
  10.600   21.25    6.97   -1.44   0.000   0.200   0.000    0.00
  10.650   20.68    3.89    1.01   0.000   0.200   0.000    0.00
  10.700   20.97    3.29    1.05   0.000   0.200   0.000    0.00
  10.750   21.05    6.39    1.75   0.000   0.200   0.000    0.00
  10.800   20.61    5.08    0.99   0.000   0.200   0.000    0.00
  10.850   22.05    2.85    0.29   0.000   0.200   0.000    0.00
  10.900   22.65    4.67    0.53   0.000   0.200   0.000    0.00
  10.950   21.99    6.27    0.47   0.000   0.200   0.000    0.00
  11.000   20.84    5.04   -0.22   0.000   0.200   0.000    0.00
  11.050   20.40    5.94    0.25   0.000   0.200   0.000    0.00
  11.100   19.39    6.14    0.61   0.000   0.200   0.000    0.00
  11.150   19.79    6.28   -0.51   0.000   0.200   0.000    0.00
  11.200   19.92    5.85    0.24   0.000   0.200   0.000    0.00
  11.250   19.95    3.24    1.50   0.000   0.200   0.000    0.00
  11.300   20.31    1.42    2.14   0.000   0.200   0.000    0.00
  11.350   19.72    4.07    2.27   0.000   0.200   0.000    0.00
  11.400   18.61    4.27    3.25   0.000   0.200   0.000    0.00
  11.450   18.70    4.44    2.36   0.000   0.200   0.000    0.00
  11.500   19.50    4.17    2.14   0.000   0.200   0.000    0.00
  11.550   19.73    1.98    1.50   0.000   0.200   0.000    0.00
  11.600   20.11    3.07    1.75   0.000   0.200   0.000    0.00
  11.650   20.60    4.82    2.80   0.000   0.200   0.000    0.00
  11.700   20.52    6.18    1.28   0.000   0.200   0.000    0.00
  11.750   19.63    4.97    0.99   0.000   0.200   0.000    0.00
  11.800   19.34    5.61    0.35   0.000   0.200   0.000    0.00
  11.850   18.22    8.07   -0.30   0.000   0.200   0.000    0.00
  11.900   17.51    5.26    0.21   0.000   0.200   0.000    0.00
  11.950   17.62    6.48   -1.24   0.000   0.200   0.000    0.00
  12.000   18.11    6.05   -0.88   0.000   0.200   0.000    0.00
  12.050   17.99    4.27   -1.79   0.000   0.200   0.000    0.00
  12.100   16.15    2.65   -1.22   0.000   0.200   0.000    0.00
  12.150   16.94    1.03   -1.72   0.000   0.200   0.000    0.00
  12.200   17.09    1.15   -0.53   0.000   0.200   0.000    0.00
  12.250   17.06   -1.65   -1.13   0.000   0.200   0.000    0.00
  12.300   16.59    2.16   -1.27   0.000   0.200   0.000    0.00
  12.350   15.53    3.43   -0.87   0.000   0.200   0.000    0.00
  12.400   16.70    7.27    0.46   0.000   0.200   0.000    0.00
  12.450   16.69    3.72   -1.63   0.000   0.200   0.000    0.00
  12.500   15.85    3.99   -2.81   0.000   0.200   0.000    0.00
  12.550   14.96    5.96   -1.59   0.000   0.200   0.000    0.00
  12.600   15.90    4.25   -1.86   0.000   0.200   0.000    0.00
  12.650   16.38    2.64   -1.50   0.000   0.200   0.000    0.00
  12.700   17.98    1.90   -0.52   0.000   0.200   0.000    0.00
  12.750   18.30    4.32   -0.82   0.000   0.200   0.000    0.00
  12.800   17.59    9.47   -0.47   0.000   0.200   0.000    0.00
  12.850   17.96    8.24   -1.12   0.000   0.200   0.000    0.00
  12.900   16.94   10.07   -0.92   0.000   0.200   0.000    0.00
  12.950   16.12   14.71   -1.05   0.000   0.200   0.000    0.00
  13.000   16.78   13.64   -0.32   0.000   0.200   0.000    0.00
  13.050   15.90   11.28   -0.78   0.000   0.200   0.000    0.00
  13.100   17.37   11.09    0.06   0.000   0.200   0.000    0.00
  13.150   17.53    7.48    0.87   0.000   0.200   0.000    0.00
  13.200   18.58    6.33    0.58   0.000   0.200   0.000    0.00
  13.250   18.70    2.98    0.86   0.000   0.200   0.000    0.00
  13.300   18.89    0.86    1.05   0.000   0.200   0.000    0.00
  13.350   19.03    0.96    1.79   0.000   0.200   0.000    0.00
  13.400   18.05   -0.52    0.69   0.000   0.200   0.000    0.00
  13.450   17.95    2.57    0.78   0.000   0.200   0.000    0.00
  13.500   18.47    8.43   -0.60   0.000   0.200   0.000    0.00
  13.550   19.06    7.76   -0.23   0.000   0.200   0.000    0.00
  13.600   18.80    9.81    0.26   0.000   0.200   0.000    0.00
  13.650   19.92    8.09    0.29   0.000   0.200   0.000    0.00
  13.700   20.73   11.40   -0.34   0.000   0.200   0.000    0.00
  13.750   19.92    7.16   -0.66   0.000   0.200   0.000    0.00
  13.800   19.83    8.43   -0.12   0.000   0.200   0.000    0.00
  13.850   18.96    8.93   -0.17   0.000   0.200   0.000    0.00
  13.900   19.14    1.31   -0.03   0.000   0.200   0.000    0.00
  13.950   19.05    0.80    0.72   0.000   0.200   0.000    0.00
  14.000   17.83   -0.47    0.71   0.000   0.200   0.000    0.00
  14.050   18.43   -1.31    0.75   0.000   0.200   0.000    0.00
  14.100   18.26   -3.72    1.39   0.000   0.200   0.000    0.00
  14.150   18.32   -3.79   -0.16   0.000   0.200   0.000    0.00
  14.200   18.22   -2.95    0.76   0.000   0.200   0.000    0.00
  14.250   18.07   -5.22    1.49   0.000   0.200   0.000    0.00
  14.300   18.67    0.53    1.82   0.000   0.200   0.000    0.00
  14.350   18.18    3.02    1.93   0.000   0.200   0.000    0.00
  14.400   18.33    1.41    2.50   0.000   0.200   0.000    0.00
  14.450   17.40    2.25    1.45   0.000   0.200   0.000    0.00
  14.500   17.47    6.70    0.41   0.000   0.200   0.000    0.00
  14.550   16.35    9.97    0.61   0.000   0.200   0.000    0.00
  14.600   16.06    6.94    1.11   0.000   0.200   0.000    0.00
  14.650   16.15    6.54    0.45   0.000   0.200   0.000    0.00
  14.700   17.05    7.98   -0.34   0.000   0.200   0.000    0.00
  14.750   18.01    3.59    0.98   0.000   0.200   0.000    0.00
  14.800   18.31    4.04    1.55   0.000   0.200   0.000    0.00
  14.850   18.41    8.98    1.68   0.000   0.200   0.000    0.00
  14.900   18.46    6.03    0.53   0.000   0.200   0.000    0.00
  14.950   19.01    6.48    0.57   0.000   0.200   0.000    0.00
  15.000   19.88    9.93    0.13   0.000   0.200   0.000    0.00
  15.050   18.77   11.33    0.16   0.000   0.200   0.000    0.00
  15.100   18.12   19.67    1.32   0.000   0.200   0.000    0.00
  15.150   17.60   16.64    0.51   0.000   0.200   0.000    0.00
  15.200   16.97   15.97    0.41   0.000   0.200   0.000    0.00
  15.250   17.23    8.44   -0.49   0.000   0.200   0.000    0.00
  15.300   17.75    6.08   -0.69   0.000   0.200   0.000    0.00
  15.350   16.87    7.85    0.16   0.000   0.200   0.000    0.00
  15.400   17.80   11.64    0.22   0.000   0.200   0.000    0.00
  15.450   18.23   16.92   -0.14   0.000   0.200   0.000    0.00
  15.500   18.80   19.34   -1.46   0.000   0.200   0.000    0.00
  15.550   18.69   18.02    0.09   0.000   0.200   0.000    0.00
  15.600   18.84   15.91    0.14   0.000   0.200   0.000    0.00
  15.650   17.57   10.81   -0.27   0.000   0.200   0.000    0.00
  15.700   17.03   10.73   -1.27   0.000   0.200   0.000    0.00
  15.750   17.46    7.15   -2.48   0.000   0.200   0.000    0.00
  15.800   17.22    7.47   -1.12   0.000   0.200   0.000    0.00
  15.850   17.71    9.57    0.38   0.000   0.200   0.000    0.00
  15.900   17.58   13.31    0.23   0.000   0.200   0.000    0.00
  15.950   18.67   15.33    0.66   0.000   0.200   0.000    0.00
  16.000   19.64   12.65    1.58   0.000   0.200   0.000    0.00
  16.050   18.86   11.53    1.57   0.000   0.200   0.000    0.00
  16.100   18.58   10.50    1.58   0.000   0.200   0.000    0.00
  16.150   18.19    9.46    1.24   0.000   0.200   0.000    0.00
  16.200   17.01    7.05    1.77   0.000   0.200   0.000    0.00
  16.250   16.30    5.84    1.82   0.000   0.200   0.000    0.00
  16.300   14.99    9.20    2.78   0.000   0.200   0.000    0.00
  16.350   15.33   15.71    1.43   0.000   0.200   0.000    0.00
  16.400   15.38   22.43    1.59   0.000   0.200   0.000    0.00
  16.450   16.14   17.77    1.07   0.000   0.200   0.000    0.00
  16.500   15.72   15.79    0.17   0.000   0.200   0.000    0.00
  16.550   15.65   18.88    1.77   0.000   0.200   0.000    0.00
  16.600   15.62   16.77    0.91   0.000   0.200   0.000    0.00
  16.650   16.26   17.97    0.74   0.000   0.200   0.000    0.00
  16.700   15.29   21.28    1.29   0.000   0.200   0.000    0.00
  16.750   15.86   17.92    1.52   0.000   0.200   0.000    0.00
  16.800   15.77   21.18    1.49   0.000   0.200   0.000    0.00
  16.850   16.30   20.35    1.23   0.000   0.200   0.000    0.00
  16.900   16.06   14.61    2.21   0.000   0.200   0.000    0.00
  16.950   16.11    6.19    2.98   0.000   0.200   0.000    0.00
  17.000   17.11    8.56    3.18   0.000   0.200   0.000    0.00
  17.050   16.83    6.20    2.32   0.000   0.200   0.000    0.00
  17.100   16.75    3.12    1.69   0.000   0.200   0.000    0.00
  17.150   17.46    3.88    1.72   0.000   0.200   0.000    0.00
  17.200   16.77   10.45    2.09   0.000   0.200   0.000    0.00
  17.250   16.62   12.50    3.36   0.000   0.200   0.000    0.00
  17.300   17.93   10.69    4.11   0.000   0.200   0.000    0.00
  17.350   18.98   10.50    4.30   0.000   0.200   0.000    0.00
  17.400   19.58    9.03    4.82   0.000   0.200   0.000    0.00
  17.450   20.40    5.72    3.62   0.000   0.200   0.000    0.00
  17.500   21.24    6.31    3.16   0.000   0.200   0.000    0.00
  17.550   19.59    7.17    2.46   0.000   0.200   0.000    0.00
  17.600   19.55    7.50    1.56   0.000   0.200   0.000    0.00
  17.650   20.86   10.47    1.65   0.000   0.200   0.000    0.00
  17.700   20.97   12.98    2.44   0.000   0.200   0.000    0.00
  17.750   20.11   13.52    3.06   0.000   0.200   0.000    0.00
  17.800   19.10   13.85    2.64   0.000   0.200   0.000    0.00
  17.850   19.25   14.99    1.38   0.000   0.200   0.000    0.00
  17.900   19.55   12.35    1.23   0.000   0.200   0.000    0.00
  17.950   20.52    7.75    1.39   0.000   0.200   0.000    0.00
  18.000   19.76    9.03    1.26   0.000   0.200   0.000    0.00
  18.050   18.87    7.33    1.67   0.000   0.200   0.000    0.00
  18.100   18.98   11.87    2.00   0.000   0.200   0.000    0.00
  18.150   19.28   11.22    2.63   0.000   0.200   0.000    0.00
  18.200   19.04   13.83    1.88   0.000   0.200   0.000    0.00
  18.250   18.29   14.09    2.46   0.000   0.200   0.000    0.00
  18.300   18.40   12.02    2.48   0.000   0.200   0.000    0.00
  18.350   19.26   14.07    2.94   0.000   0.200   0.000    0.00
  18.400   19.96   14.00    3.15   0.000   0.200   0.000    0.00
  18.450   20.39   16.16    3.49   0.000   0.200   0.000    0.00
  18.500   20.83   16.25    2.70   0.000   0.200   0.000    0.00
  18.550   21.16   16.86    2.42   0.000   0.200   0.000    0.00
  18.600   21.31   14.99    3.15   0.000   0.200   0.000    0.00
  18.650   20.45   12.03    2.25   0.000   0.200   0.000    0.00
  18.700   21.02   13.22    2.39   0.000   0.200   0.000    0.00
  18.750   21.08   12.63    3.45   0.000   0.200   0.000    0.00
  18.800   20.07   14.51    2.08   0.000   0.200   0.000    0.00
  18.850   20.28   15.58    1.49   0.000   0.200   0.000    0.00
  18.900   19.57   18.01    0.57   0.000   0.200   0.000    0.00
  18.950   20.03   20.22    0.71   0.000   0.200   0.000    0.00
  19.000   21.47   16.89    0.29   0.000   0.200   0.000    0.00
  19.050   21.18   15.19    2.68   0.000   0.200   0.000    0.00
  19.100   21.75   14.21    4.05   0.000   0.200   0.000    0.00
  19.150   21.17   10.77    3.68   0.000   0.200   0.000    0.00
  19.200   20.52   10.79    4.53   0.000   0.200   0.000    0.00
  19.250   20.30   11.59    5.00   0.000   0.200   0.000    0.00
  19.300   20.58   14.73    4.99   0.000   0.200   0.000    0.00
  19.350   21.73   17.97    5.20   0.000   0.200   0.000    0.00
  19.400   21.39   17.68    4.97   0.000   0.200   0.000    0.00
  19.450   19.51   21.60    4.17   0.000   0.200   0.000    0.00
  19.500   19.08   23.41    3.60   0.000   0.200   0.000    0.00
  19.550   20.59   23.24    3.14   0.000   0.200   0.000    0.00
  19.600   20.66   23.81    2.45   0.000   0.200   0.000    0.00
  19.650   20.65   25.90    2.97   0.000   0.200   0.000    0.00
  19.700   18.93   23.52    2.79   0.000   0.200   0.000    0.00
  19.750   19.00   23.00    3.55   0.000   0.200   0.000    0.00
  19.800   18.19   20.52    3.28   0.000   0.200   0.000    0.00
  19.850   18.52   15.20    3.93   0.000   0.200   0.000    0.00
  19.900   18.20   14.98    4.44   0.000   0.200   0.000    0.00
  19.950   18.60   11.60    3.32   0.000   0.200   0.000    0.00
  20.000   18.45   10.71    3.11   0.000   0.200   0.000    0.00
  20.050   17.97   11.88    1.80   0.000   0.200   0.000    0.00
  20.100   18.30   12.78    1.77   0.000   0.200   0.000    0.00
  20.150   18.56   14.82    2.54   0.000   0.200   0.000    0.00
  20.200   18.43   20.25    1.07   0.000   0.200   0.000    0.00
  20.250   18.53   19.99    1.17   0.000   0.200   0.000    0.00
  20.300   18.46   21.93    0.93   0.000   0.200   0.000    0.00
  20.350   19.44   23.94    0.04   0.000   0.200   0.000    0.00
  20.400   19.04   20.53   -0.52   0.000   0.200   0.000    0.00
  20.450   19.65   22.96    0.36   0.000   0.200   0.000    0.00
  20.500   20.84   19.60    0.19   0.000   0.200   0.000    0.00
  20.550   20.40   13.07   -0.19   0.000   0.200   0.000    0.00
  20.600   19.48   11.60   -0.46   0.000   0.200   0.000    0.00
  20.650   19.28    9.26    0.22   0.000   0.200   0.000    0.00
  20.700   18.42    8.89   -0.08   0.000   0.200   0.000    0.00
  20.750   16.94    9.35   -0.13   0.000   0.200   0.000    0.00
  20.800   17.90    8.43   -1.18   0.000   0.200   0.000    0.00
  20.850   18.42    8.60    0.27   0.000   0.200   0.000    0.00
  20.900   18.50   10.30    0.79   0.000   0.200   0.000    0.00
  20.950   18.94    9.72    0.38   0.000   0.200   0.000    0.00
  21.000   19.86   12.18    0.78   0.000   0.200   0.000    0.00
  21.050   21.27   11.67    0.54   0.000   0.200   0.000    0.00
  21.100   20.77   11.19   -0.50   0.000   0.200   0.000    0.00
  21.150   20.66   10.64    0.08   0.000   0.200   0.000    0.00
  21.200   20.86    8.26   -0.36   0.000   0.200   0.000    0.00
  21.250   21.15   12.06   -0.32   0.000   0.200   0.000    0.00
  21.300   20.80    8.94    0.69   0.000   0.200   0.000    0.00
  21.350   20.28    6.96   -0.51   0.000   0.200   0.000    0.00
  21.400   20.03    6.62   -1.17   0.000   0.200   0.000    0.00
  21.450   21.96   10.63   -1.57   0.000   0.200   0.000    0.00
  21.500   20.23   13.27   -1.00   0.000   0.200   0.000    0.00
  21.550   19.86   15.92    0.94   0.000   0.200   0.000    0.00
  21.600   19.22   20.69    0.98   0.000   0.200   0.000    0.00
  21.650   18.88   20.76    1.08   0.000   0.200   0.000    0.00
  21.700   19.91   20.73    1.75   0.000   0.200   0.000    0.00
  21.750   19.98   19.14    2.26   0.000   0.200   0.000    0.00
  21.800   19.81   18.98    1.53   0.000   0.200   0.000    0.00
  21.850   18.75   22.30    1.51   0.000   0.200   0.000    0.00
  21.900   18.70   21.65    1.22   0.000   0.200   0.000    0.00
  21.950   17.95   18.75    2.40   0.000   0.200   0.000    0.00
  22.000   18.55   13.60    2.53   0.000   0.200   0.000    0.00
  22.050   17.98   12.98    2.20   0.000   0.200   0.000    0.00
  22.100   18.42   12.10    1.45   0.000   0.200   0.000    0.00
  22.150   19.43   12.82    1.78   0.000   0.200   0.000    0.00
  22.200   19.26   13.56    1.60   0.000   0.200   0.000    0.00
  22.250   17.91   11.47    1.72   0.000   0.200   0.000    0.00
  22.300   17.54    9.36    1.51   0.000   0.200   0.000    0.00
  22.350   17.09    8.27    1.71   0.000   0.200   0.000    0.00