! This hub-height wind-speed file was generated by TurbSim (v1.06.00, 21-Sep-2012) on 16-Jun-2018 at 18:36:05.
!
! The requested statistics for this data were:
!    Mean Total Wind Speed =   15.000 m/s
!    Turbulence Intensity  =   15.727%
!
!   Time  HorSpd  WndDir  VerSpd  HorShr  VerShr  LnVShr  GstSpd
!  (sec)   (m/s)   (deg)   (m/s)     (-)     (-)     (-)   (m/s)
   0.000   16.80    8.37   -0.42   0.000   0.200   0.000    0.00
   0.050   16.59   10.44    0.38   0.000   0.200   0.000    0.00
   0.100   16.28    8.70    0.60   0.000   0.200   0.000    0.00
   0.150   16.15    6.66    0.04   0.000   0.200   0.000    0.00
   0.200   16.43    5.43   -0.45   0.000   0.200   0.000    0.00
   0.250   16.11    5.06   -0.77   0.000   0.200   0.000    0.00
   0.300   15.75    7.12   -0.20   0.000   0.200   0.000    0.00
   0.350   15.75    6.08   -0.61   0.000   0.200   0.000    0.00
   0.400   15.30    6.44    0.31   0.000   0.200   0.000    0.00
   0.450   14.80    4.25    1.21   0.000   0.200   0.000    0.00
   0.500   15.00    1.57    1.32   0.000   0.200   0.000    0.00
   0.550   14.85    0.22    1.51   0.000   0.200   0.000    0.00
   0.600   14.67    2.11    0.77   0.000   0.200   0.000    0.00
   0.650   15.19    1.24    0.74   0.000   0.200   0.000    0.00
   0.700   15.57    2.74    1.10   0.000   0.200   0.000    0.00
   0.750   15.51    1.66    1.08   0.000   0.200   0.000    0.00
   0.800   15.47    0.32    0.45   0.000   0.200   0.000    0.00
   0.850   15.63    0.76    0.67   0.000   0.200   0.000    0.00
   0.900   15.66    1.10    0.34   0.000   0.200   0.000    0.00
   0.950   15.09    0.99    0.21   0.000   0.200   0.000    0.00
   1.000   15.69    4.64   -0.21   0.000   0.200   0.000    0.00
   1.050   16.02    6.53   -0.68   0.000   0.200   0.000    0.00
   1.100   15.61    4.70   -0.61   0.000   0.200   0.000    0.00
   1.150   15.14    7.05   -0.04   0.000   0.200   0.000    0.00
   1.200   15.49    8.14   -0.59   0.000   0.200   0.000    0.00
   1.250   15.71    7.05   -0.87   0.000   0.200   0.000    0.00
   1.300   15.60    4.28   -0.36   0.000   0.200   0.000    0.00
   1.350   15.20    6.18    0.16   0.000   0.200   0.000    0.00
   1.400   15.29    2.87    0.30   0.000   0.200   0.000    0.00
   1.450   15.01    3.24    0.52   0.000   0.200   0.000    0.00
   1.500   14.80    4.24   -0.84   0.000   0.200   0.000    0.00
   1.550   15.28    2.65   -0.29   0.000   0.200   0.000    0.00
   1.600   15.36    1.24    0.86   0.000   0.200   0.000    0.00
   1.650   14.71    1.23    0.57   0.000   0.200   0.000    0.00
   1.700   14.96    1.15    0.68   0.000   0.200   0.000    0.00
   1.750   15.10    1.24    0.20   0.000   0.200   0.000    0.00
   1.800   15.12    0.34   -0.84   0.000   0.200   0.000    0.00
   1.850   15.24   -0.11   -0.49   0.000   0.200   0.000    0.00
   1.900   15.19    4.60   -0.08   0.000   0.200   0.000    0.00
   1.950   14.95    2.88   -0.96   0.000   0.200   0.000    0.00
   2.000   14.82    2.10   -1.58   0.000   0.200   0.000    0.00
   2.050   15.09    1.10   -1.12   0.000   0.200   0.000    0.00
   2.100   15.52    0.57   -2.00   0.000   0.200   0.000    0.00
   2.150   15.93    2.18   -1.24   0.000   0.200   0.000    0.00
   2.200   16.33    1.05   -1.02   0.000   0.200   0.000    0.00
   2.250   16.66    2.45   -0.92   0.000   0.200   0.000    0.00
   2.300   16.57   -0.02   -1.16   0.000   0.200   0.000    0.00
   2.350   16.81    0.65   -1.26   0.000   0.200   0.000    0.00
   2.400   16.64    2.87    0.43   0.000   0.200   0.000    0.00
   2.450   16.67    1.99    0.53   0.000   0.200   0.000    0.00
   2.500   17.50    2.89   -0.05   0.000   0.200   0.000    0.00
   2.550   17.00    3.62    0.29   0.000   0.200   0.000    0.00
   2.600   16.36    2.07   -0.24   0.000   0.200   0.000    0.00
   2.650   16.72    2.12   -0.86   0.000   0.200   0.000    0.00
   2.700   17.06    4.78   -0.52   0.000   0.200   0.000    0.00
   2.750   17.53    4.40   -0.77   0.000   0.200   0.000    0.00
   2.800   17.42    3.29   -0.43   0.000   0.200   0.000    0.00
   2.850   17.40    2.31   -0.66   0.000   0.200   0.000    0.00
   2.900   17.49   -2.26   -0.24   0.000   0.200   0.000    0.00
   2.950   17.37   -1.32   -1.04   0.000   0.200   0.000    0.00
   3.000   17.55   -2.24   -0.86   0.000   0.200   0.000    0.00
   3.050   17.61   -2.75   -0.20   0.000   0.200   0.000    0.00
   3.100   17.46   -2.48    0.33   0.000   0.200   0.000    0.00
   3.150   17.47   -0.48    0.69   0.000   0.200   0.000    0.00
   3.200   17.92    0.24    0.37   0.000   0.200   0.000    0.00
   3.250   17.34    1.77   -0.57   0.000   0.200   0.000    0.00
   3.300   17.06    1.11   -0.36   0.000   0.200   0.000    0.00
   3.350   16.89   -2.23   -0.92   0.000   0.200   0.000    0.00
   3.400   16.96    2.15   -1.28   0.000   0.200   0.000    0.00
   3.450   16.75    3.66   -1.13   0.000   0.200   0.000    0.00
   3.500   17.58    6.49   -1.15   0.000   0.200   0.000    0.00
   3.550   17.15    5.59   -1.06   0.000   0.200   0.000    0.00
   3.600   17.53    4.68   -0.79   0.000   0.200   0.000    0.00
   3.650   18.24    3.46   -0.08   0.000   0.200   0.000    0.00
   3.700   18.12    3.17   -0.20   0.000   0.200   0.000    0.00
   3.750   17.53    3.12   -0.80   0.000   0.200   0.000    0.00
   3.800   17.33    4.40   -0.82   0.000   0.200   0.000    0.00
   3.850   16.65    4.64   -0.60   0.000   0.200   0.000    0.00
   3.900   17.05    3.85    0.21   0.000   0.200   0.000    0.00
   3.950   17.28    4.59    0.44   0.000   0.200   0.000    0.00
   4.000   17.84    5.33    0.22   0.000   0.200   0.000    0.00
   4.050   18.28    4.64    0.72   0.000   0.200   0.000    0.00
   4.100   17.70    4.55    1.30   0.000   0.200   0.000    0.00
   4.150   17.53    2.35    0.08   0.000   0.200   0.000    0.00
   4.200   17.20    3.02   -0.35   0.000   0.200   0.000    0.00
   4.250   17.29    2.33    0.13   0.000   0.200   0.000    0.00
   4.300   17.07    3.67    0.23   0.000   0.200   0.000    0.00
   4.350   16.84    2.93    0.22   0.000   0.200   0.000    0.00
   4.400   16.55    5.55    0.16   0.000   0.200   0.000    0.00
   4.450   16.94    3.19    0.32   0.000   0.200   0.000    0.00
   4.500   17.15    4.28   -0.30   0.000   0.200   0.000    0.00
   4.550   17.84    2.96   -0.55   0.000   0.200   0.000    0.00
   4.600   17.43    2.67    0.44   0.000   0.200   0.000    0.00
   4.650   17.13    3.10    0.14   0.000   0.200   0.000    0.00
   4.700   16.93    5.73    0.31   0.000   0.200   0.000    0.00
   4.750   17.27    6.83    0.19   0.000   0.200   0.000    0.00
   4.800   17.18    4.31    0.38   0.000   0.200   0.000    0.00
   4.850   16.74    6.82    0.76   0.000   0.200   0.000    0.00
   4.900   16.77    8.84    0.95   0.000   0.200   0.000    0.00
   4.950   17.07    9.80    1.21   0.000   0.200   0.000    0.00
   5.000   17.37   10.40    0.70   0.000   0.200   0.000    0.00
   5.050   17.69    8.73    0.18   0.000   0.200   0.000    0.00
   5.100   17.90    7.09   -0.13   0.000   0.200   0.000    0.00
   5.150   17.92    5.98   -0.08   0.000   0.200   0.000    0.00
   5.200   18.59    5.33   -0.36   0.000   0.200   0.000    0.00
   5.250   17.32    4.70   -0.04   0.000   0.200   0.000    0.00
   5.300   17.21    5.42   -0.16   0.000   0.200   0.000    0.00
   5.350   16.87    5.04   -0.08   0.000   0.200   0.000    0.00
   5.400   17.40    5.26   -0.22   0.000   0.200   0.000    0.00
   5.450   18.05    7.27   -0.37   0.000   0.200   0.000    0.00
   5.500   18.40    5.78   -0.11   0.000   0.200   0.000    0.00
   5.550   18.55    5.22    0.51   0.000   0.200   0.000    0.00
   5.600   18.52    6.15   -0.04   0.000   0.200   0.000    0.00
   5.650   18.23    5.33   -0.55   0.000   0.200   0.000    0.00
   5.700   18.05    6.21   -0.94   0.000   0.200   0.000    0.00
   5.750   18.02    4.01   -1.07   0.000   0.200   0.000    0.00
   5.800   17.74    1.60   -0.39   0.000   0.200   0.000    0.00
   5.850   18.05    2.19   -0.25   0.000   0.200   0.000    0.00
   5.900   18.09    1.23    0.30   0.000   0.200   0.000    0.00
   5.950   18.71    3.94   -0.46   0.000   0.200   0.000    0.00
   6.000   18.98    2.81   -0.60   0.000   0.200   0.000    0.00
   6.050   18.81   -0.52   -0.03   0.000   0.200   0.000    0.00
   6.100   18.72   -0.07    0.00   0.000   0.200   0.000    0.00
   6.150   18.62    0.53   -0.29   0.000   0.200   0.000    0.00
   6.200   18.89    1.09   -0.08   0.000   0.200   0.000    0.00
   6.250   19.05    3.63   -0.66   0.000   0.200   0.000    0.00
   6.300   18.36    4.24   -0.08   0.000   0.200   0.000    0.00
   6.350   18.00    4.45    0.22   0.000   0.200   0.000    0.00
   6.400   18.19    1.14    0.30   0.000   0.200   0.000    0.00
   6.450   18.27    0.72    0.80   0.000   0.200   0.000    0.00
   6.500   18.91    0.17   -0.31   0.000   0.200   0.000    0.00
   6.550   18.95    3.02    0.43   0.000   0.200   0.000    0.00
   6.600   19.11    2.39    0.77   0.000   0.200   0.000    0.00
   6.650   19.66    1.55    0.81   0.000   0.200   0.000    0.00
   6.700   20.00    3.38   -0.07   0.000   0.200   0.000    0.00
   6.750   19.36    3.25    0.25   0.000   0.200   0.000    0.00
   6.800   19.76    4.52   -0.37   0.000   0.200   0.000    0.00
   6.850   19.81    3.67   -0.47   0.000   0.200   0.000    0.00
   6.900   18.78    2.91   -0.16   0.000   0.200   0.000    0.00
   6.950   18.78    4.78   -0.38   0.000   0.200   0.000    0.00
   7.000   18.97    3.27   -0.17   0.000   0.200   0.000    0.00
   7.050   19.20    4.25   -0.30   0.000   0.200   0.000    0.00
   7.100   19.12    4.14    0.15   0.000   0.200   0.000    0.00
   7.150   18.74    5.21    0.16   0.000   0.200   0.000    0.00
   7.200   18.47    5.42   -0.03   0.000   0.200   0.000    0.00
   7.250   19.39    6.30    0.39   0.000   0.200   0.000    0.00
   7.300   19.77   10.54    0.76   0.000   0.200   0.000    0.00
   7.350   19.91    9.12    0.91   0.000   0.200   0.000    0.00
   7.400   20.03    8.84    0.42   0.000   0.200   0.000    0.00
   7.450   19.75    9.68    1.33   0.000   0.200   0.000    0.00
   7.500   19.81    9.50    0.95   0.000   0.200   0.000    0.00
   7.550   19.20   11.77    0.04   0.000   0.200   0.000    0.00
   7.600   19.39   10.19    0.23   0.000   0.200   0.000    0.00
   7.650   19.36    7.88    0.47   0.000   0.200   0.000    0.00
   7.700   18.84    7.15    0.62   0.000   0.200   0.000    0.00
   7.750   18.38    7.37    1.00   0.000   0.200   0.000    0.00
   7.800   17.95    8.99    1.41   0.000   0.200   0.000    0.00
   7.850   18.06    6.76    1.12   0.000   0.200   0.000    0.00
   7.900   18.15    4.68    0.52   0.000   0.200   0.000    0.00
   7.950   17.72    4.78   -0.12   0.000   0.200   0.000    0.00
   8.000   17.87    3.55    0.16   0.000   0.200   0.000    0.00
   8.050   17.87    4.55    0.81   0.000   0.200   0.000    0.00
   8.100   17.73    0.76    0.37   0.000   0.200   0.000    0.00
   8.150   17.26   -1.02   -0.50   0.000   0.200   0.000    0.00
   8.200   17.25   -0.86   -0.66   0.000   0.200   0.000    0.00
   8.250   17.14   -2.26   -0.61   0.000   0.200   0.000    0.00
   8.300   17.10   -4.89    0.76   0.000   0.200   0.000    0.00
   8.350   16.68   -6.08    0.53   0.000   0.200   0.000    0.00
   8.400   16.89   -6.65   -0.71   0.000   0.200   0.000    0.00
   8.450   16.97   -6.86   -1.51   0.000   0.200   0.000    0.00
   8.500   17.35   -6.79   -1.54   0.000   0.200   0.000    0.00
   8.550   17.67   -8.53   -0.53   0.000   0.200   0.000    0.00
   8.600   17.95   -6.00   -0.29   0.000   0.200   0.000    0.00
   8.650   18.05   -6.35   -0.68   0.000   0.200   0.000    0.00
   8.700   17.22   -6.69   -0.91   0.000   0.200   0.000    0.00
   8.750   17.40   -6.04   -0.76   0.000   0.200   0.000    0.00
   8.800   17.67   -5.82    0.21   0.000   0.200   0.000    0.00
   8.850   17.25   -4.66    0.21   0.000   0.200   0.000    0.00
   8.900   17.74   -5.29    0.65   0.000   0.200   0.000    0.00
   8.950   17.36   -3.49    1.28   0.000   0.200   0.000    0.00
   9.000   17.82   -4.24    0.89   0.000   0.200   0.000    0.00
   9.050   17.95   -4.82    0.67   0.000   0.200   0.000    0.00
   9.100   18.01   -2.48    0.78   0.000   0.200   0.000    0.00
   9.150   17.25   -5.31   -0.13   0.000   0.200   0.000    0.00
   9.200   17.14   -4.74    0.25   0.000   0.200   0.000    0.00
   9.250   17.42   -4.67    0.32   0.000   0.200   0.000    0.00
   9.300   17.49   -2.19    1.54   0.000   0.200   0.000    0.00
   9.350   18.44   -2.56    1.33   0.000   0.200   0.000    0.00
   9.400   17.87   -2.77    0.71   0.000   0.200   0.000    0.00
   9.450   17.67    0.03    0.98   0.000   0.200   0.000    0.00
   9.500   18.00   -1.43    0.78   0.000   0.200   0.000    0.00
   9.550   17.93   -2.03    0.97   0.000   0.200   0.000    0.00
   9.600   17.61    0.65    0.53   0.000   0.200   0.000    0.00
   9.650   17.66   -1.04    0.38   0.000   0.200   0.000    0.00
   9.700   17.22   -3.86    0.35   0.000   0.200   0.000    0.00
   9.750   17.60   -2.79   -0.21   0.000   0.200   0.000    0.00
   9.800   18.27   -1.60   -0.43   0.000   0.200   0.000    0.00
   9.850   18.50   -0.88   -0.72   0.000   0.200   0.000    0.00
   9.900   18.36   -2.29   -0.66   0.000   0.200   0.000    0.00
   9.950   17.62   -0.93    0.22   0.000   0.200   0.000    0.00
  10.000   17.78    0.76    0.12   0.000   0.200   0.000    0.00
  10.050   17.88   -0.84    0.22   0.000   0.200   0.000    0.00
  10.100   17.45   -4.17   -0.14   0.000   0.200   0.000    0.00
  10.150   17.49   -0.82    0.08   0.000   0.200   0.000    0.00
  10.200   17.17   -1.11   -0.12   0.000   0.200   0.000    0.00
  10.250   16.66   -0.07    0.21   0.000   0.200   0.000    0.00
  10.300   16.78    1.03    0.62   0.000   0.200   0.000    0.00
  10.350   16.65    3.12   -0.08   0.000   0.200   0.000    0.00
  10.400   16.68    3.00   -0.49   0.000   0.200   0.000    0.00
  10.450   16.73    1.83   -0.47   0.000   0.200   0.000    0.00
  10.500   17.01   -0.36   -0.23   0.000   0.200   0.000    0.00
  10.550   17.46   -2.47    0.28   0.000   0.200   0.000    0.00
  10.600   17.33   -2.20    0.34   0.000   0.200   0.000    0.00
  10.650   17.73   -1.69    0.84   0.000   0.200   0.000    0.00
  10.700   17.90    1.10    0.67   0.000   0.200   0.000    0.00
  10.750   17.80    1.31    0.15   0.000   0.200   0.000    0.00
  10.800   17.79    0.77    0.23   0.000   0.200   0.000    0.00
  10.850   17.67    2.60    0.16   0.000   0.200   0.000    0.00
  10.900   17.67    3.81   -0.41   0.000   0.200   0.000    0.00
  10.950   17.81    2.22   -1.19   0.000   0.200   0.000    0.00
  11.000   17.78    4.43   -0.43   0.000   0.200   0.000    0.00
  11.050   17.76    4.70   -1.03   0.000   0.200   0.000    0.00
  11.100   17.36    3.82   -0.68   0.000   0.200   0.000    0.00
  11.150   16.87    4.64   -1.01   0.000   0.200   0.000    0.00
  11.200   17.00    4.82   -0.99   0.000   0.200   0.000    0.00
  11.250   17.62    4.47   -1.03   0.000   0.200   0.000    0.00
  11.300   17.32    5.18   -0.77   0.000   0.200   0.000    0.00
  11.350   17.95    6.29   -0.57   0.000   0.200   0.000    0.00
  11.400   17.90    5.81   -0.76   0.000   0.200   0.000    0.00
  11.450   17.93    5.38   -1.15   0.000   0.200   0.000    0.00
  11.500   17.29    2.41   -1.35   0.000   0.200   0.000    0.00
  11.550   16.73    4.54   -1.42   0.000   0.200   0.000    0.00
  11.600   16.14    2.94   -1.08   0.000   0.200   0.000    0.00
  11.650   15.85   -0.23   -0.83   0.000   0.200   0.000    0.00
  11.700   16.17   -1.17   -1.63   0.000   0.200   0.000    0.00
  11.750   16.47   -0.82   -2.29   0.000   0.200   0.000    0.00
  11.800   16.91    0.61   -2.01   0.000   0.200   0.000    0.00
  11.850   16.31   -0.75   -1.55   0.000   0.200   0.000    0.00
  11.900   16.72   -1.08   -1.17   0.000   0.200   0.000    0.00
  11.950   15.85    0.67   -1.37   0.000   0.200   0.000    0.00
  12.000   16.08    2.90   -1.51   0.000   0.200   0.000    0.00
  12.050   17.06    2.86   -1.79   0.000   0.200   0.000    0.00
  12.100   16.92    3.72   -2.53   0.000   0.200   0.000    0.00
  12.150   17.23    4.36   -2.70   0.000   0.200   0.000    0.00
  12.200   17.48    5.09   -1.89   0.000   0.200   0.000    0.00
  12.250   17.50    4.87   -3.02   0.000   0.200   0.000    0.00
  12.300   17.41    5.60   -3.04   0.000   0.200   0.000    0.00
  12.350   18.40    6.40   -3.57   0.000   0.200   0.000    0.00
  12.400   18.22    4.76   -2.77   0.000   0.200   0.000    0.00
  12.450   17.50    4.44   -3.06   0.000   0.200   0.000    0.00
  12.500   17.95    3.59   -2.58   0.000   0.200   0.000    0.00
  12.550   17.33    1.65   -2.68   0.000   0.200   0.000    0.00
  12.600   16.92   -1.01   -1.81   0.000   0.200   0.000    0.00
  12.650   16.83   -1.68   -0.94   0.000   0.200   0.000    0.00
  12.700   16.95   -0.98   -0.59   0.000   0.200   0.000    0.00
  12.750   16.91   -1.11   -0.55   0.000   0.200   0.000    0.00
  12.800   16.35   -2.68   -0.63   0.000   0.200   0.000    0.00
  12.850   16.77   -2.57    0.33   0.000   0.200   0.000    0.00
  12.900   16.46   -0.20   -0.03   0.000   0.200   0.000    0.00
  12.950   15.90    0.33   -0.58   0.000   0.200   0.000    0.00
  13.000   15.72    1.50   -1.23   0.000   0.200   0.000    0.00
  13.050   15.48    2.27   -0.50   0.000   0.200   0.000    0.00
  13.100   15.75    0.89   -0.42   0.000   0.200   0.000    0.00
  13.150   15.50   -0.87   -0.84   0.000   0.200   0.000    0.00
  13.200   15.65   -0.96   -0.94   0.000   0.200   0.000    0.00
  13.250   15.07    0.63   -1.59   0.000   0.200   0.000    0.00
  13.300   15.30    2.64   -1.39   0.000   0.200   0.000    0.00
  13.350   15.78    3.67   -1.06   0.000   0.200   0.000    0.00
  13.400   16.70    5.97   -0.75   0.000   0.200   0.000    0.00
  13.450   16.71    5.20   -0.61   0.000   0.200   0.000    0.00
  13.500   16.49    3.10   -0.87   0.000   0.200   0.000    0.00
  13.550   16.62    4.53   -0.24   0.000   0.200   0.000    0.00
  13.600   15.87    5.31   -0.08   0.000   0.200   0.000    0.00
  13.650   15.49    3.80   -0.27   0.000   0.200   0.000    0.00
  13.700   15.84    1.91   -1.13   0.000   0.200   0.000    0.00
  13.750   16.54    0.89   -1.34   0.000   0.200   0.000    0.00
  13.800   16.32   -2.03   -0.79   0.000   0.200   0.000    0.00
  13.850   16.98   -2.80   -1.48   0.000   0.200   0.000    0.00
  13.900   16.78   -2.31   -1.34   0.000   0.200   0.000    0.00
  13.950   16.45   -1.48   -1.60   0.000   0.200   0.000    0.00
  14.000   16.72    0.95   -0.68   0.000   0.200   0.000    0.00
  14.050   16.19    0.05   -0.43   0.000   0.200   0.000    0.00
  14.100   16.07   -1.60   -0.16   0.000   0.200   0.000    0.00
  14.150   16.04   -0.07   -0.33   0.000   0.200   0.000    0.00
  14.200   15.96   -2.18    0.59   0.000   0.200   0.000    0.00
  14.250   16.26   -1.01    0.72   0.000   0.200   0.000    0.00
  14.300   16.89    1.70    0.26   0.000   0.200   0.000    0.00
  14.350   16.34    3.15    0.42   0.000   0.200   0.000    0.00
  14.400   16.49    2.06    0.56   0.000   0.200   0.000    0.00
  14.450   16.19    4.71    0.47   0.000   0.200   0.000    0.00
  14.500   16.33    7.56   -0.05   0.000   0.200   0.000    0.00
  14.550   16.53    6.85   -0.14   0.000   0.200   0.000    0.00
  14.600   16.05    8.14   -0.01   0.000   0.200   0.000    0.00
  14.650   15.56    7.18    0.06   0.000   0.200   0.000    0.00
  14.700   15.82    5.32   -0.27   0.000   0.200   0.000    0.00
  14.750   15.63    6.63   -0.79   0.000   0.200   0.000    0.00
  14.800   15.80    8.12   -0.56   0.000   0.200   0.000    0.00
  14.850   15.49    7.62    0.68   0.000   0.200   0.000    0.00
  14.900   14.76    6.73    1.06   0.000   0.200   0.000    0.00
  14.950   15.38    8.27    1.21   0.000   0.200   0.000    0.00
  15.000   14.90    8.60    1.54   0.000   0.200   0.000    0.00
  15.050   14.60    8.05    2.15   0.000   0.200   0.000    0.00
  15.100   14.08    7.19    2.31   0.000   0.200   0.000    0.00
  15.150   14.64    8.23    1.29   0.000   0.200   0.000    0.00
  15.200   14.68    9.31    0.76   0.000   0.200   0.000    0.00
  15.250   14.15    9.35    0.18   0.000   0.200   0.000    0.00
  15.300   14.73    7.00    0.05   0.000   0.200   0.000    0.00
  15.350   14.50    7.40    0.67   0.000   0.200   0.000    0.00
  15.400   13.95    3.95    0.91   0.000   0.200   0.000    0.00
  15.450   13.43    4.63    1.59   0.000   0.200   0.000    0.00
  15.500   13.17    9.49    1.56   0.000   0.200   0.000    0.00
  15.550   13.71    8.76    2.04   0.000   0.200   0.000    0.00
  15.600   13.77    6.86    2.41   0.000   0.200   0.000    0.00
  15.650   13.69    4.96    2.65   0.000   0.200   0.000    0.00
  15.700   13.95    5.96    2.93   0.000   0.200   0.000    0.00
  15.750   14.18    3.97    2.53   0.000   0.200   0.000    0.00
  15.800   13.96    2.60    2.60   0.000   0.200   0.000    0.00
  15.850   13.81    1.74    2.55   0.000   0.200   0.000    0.00
  15.900   14.12    2.18    2.36   0.000   0.200   0.000    0.00
  15.950   14.07    4.12    2.72   0.000   0.200   0.000    0.00
  16.000   14.74    2.46    2.73   0.000   0.200   0.000    0.00
  16.050   14.73    3.81    2.83   0.000   0.200   0.000    0.00
  16.100   15.11    5.13    2.96   0.000   0.200   0.000    0.00
  16.150   15.57    6.10    2.97   0.000   0.200   0.000    0.00
  16.200   15.78    5.40    2.33   0.000   0.200   0.000    0.00
  16.250   16.19    8.65    1.59   0.000   0.200   0.000    0.00
  16.300   16.13    7.11    1.86   0.000   0.200   0.000    0.00
  16.350   16.61    7.07    2.12   0.000   0.200   0.000    0.00
  16.400   15.93    8.81    2.71   0.000   0.200   0.000    0.00
  16.450   16.18   11.20    2.59   0.000   0.200   0.000    0.00
  16.500   16.52   12.16    2.27   0.000   0.200   0.000    0.00
  16.550   15.94   10.84    1.87   0.000   0.200   0.000    0.00
  16.600   15.94   10.01    1.38   0.000   0.200   0.000    0.00
  16.650   15.99   10.91    1.23   0.000   0.200   0.000    0.00
  16.700   16.27    9.63    0.99   0.000   0.200   0.000    0.00
  16.750   16.27    8.91    1.26   0.000   0.200   0.000    0.00
  16.800   16.17    8.78    1.15   0.000   0.200   0.000    0.00
  16.850   15.91    9.95    0.67   0.000   0.200   0.000    0.00
  16.900   15.69    9.36    0.99   0.000   0.200   0.000    0.00
  16.950   15.84    5.75    0.95   0.000   0.200   0.000    0.00
  17.000   15.86    4.14    0.70   0.000   0.200   0.000    0.00
  17.050   15.40    2.04    0.89   0.000   0.200   0.000    0.00
  17.100   15.06    0.46   -0.37   0.000   0.200   0.000    0.00
  17.150   14.75   -1.51   -0.43   0.000   0.200   0.000    0.00
  17.200   15.16    0.25    0.62   0.000   0.200   0.000    0.00
  17.250   15.07    2.36    0.49   0.000   0.200   0.000    0.00
  17.300   15.30    1.62    0.93   0.000   0.200   0.000    0.00
  17.350   15.53    1.58    1.06   0.000   0.200   0.000    0.00
  17.400   15.59   -0.18    1.65   0.000   0.200   0.000    0.00
  17.450   15.83   -0.83    1.71   0.000   0.200   0.000    0.00
  17.500   16.01    1.09    1.07   0.000   0.200   0.000    0.00
  17.550   16.49    2.00    0.76   0.000   0.200   0.000    0.00
  17.600   16.26    3.85    0.60   0.000   0.200   0.000    0.00
  17.650   15.83    3.27    0.97   0.000   0.200   0.000    0.00
  17.700   15.88   -0.36    1.72   0.000   0.200   0.000    0.00
  17.750   15.85   -0.14    1.83   0.000   0.200   0.000    0.00
  17.800   16.16    0.52    1.92   0.000   0.200   0.000    0.00
  17.850   16.07    3.14    1.53   0.000   0.200   0.000    0.00
  17.900   16.38    1.60    2.00   0.000   0.200   0.000    0.00
  17.950   16.46    0.29    1.24   0.000   0.200   0.000    0.00
  18.000   15.79    2.59    0.69   0.000   0.200   0.000    0.00
  18.050   16.44    5.83    0.76   0.000   0.200   0.000    0.00
  18.100   16.99    6.08    0.13   0.000   0.200   0.000    0.00
  18.150   17.00    6.34    0.00   0.000   0.200   0.000    0.00
  18.200   16.50    6.04    0.09   0.000   0.200   0.000    0.00
  18.250   16.16    3.80    0.09   0.000   0.200   0.000    0.00
  18.300   16.82    2.28   -0.26   0.000   0.200   0.000    0.00
  18.350   17.26   -1.22   -0.31   0.000   0.200   0.000    0.00
  18.400   16.91   -1.56    0.06   0.000   0.200   0.000    0.00
  18.450   16.30   -0.94   -0.06   0.000   0.200   0.000    0.00
  18.500   16.27   -1.62   -0.59   0.000   0.200   0.000    0.00
  18.550   16.53   -0.97   -1.57   0.000   0.200   0.000    0.00
  18.600   16.56   -2.50   -0.80   0.000   0.200   0.000    0.00
  18.650   16.55   -0.51   -0.18   0.000   0.200   0.000    0.00
  18.700   16.41    0.39   -0.09   0.000   0.200   0.000    0.00
  18.750   16.70   -1.04   -0.21   0.000   0.200   0.000    0.00
  18.800   16.34    0.31   -0.41   0.000   0.200   0.000    0.00
  18.850   16.59    0.36   -0.28   0.000   0.200   0.000    0.00
  18.900   16.80    0.31    0.24   0.000   0.200   0.000    0.00
  18.950   17.08    0.91    0.11   0.000   0.200   0.000    0.00
  19.000   17.12   -0.57    0.03   0.000   0.200   0.000    0.00
  19.050   16.95   -2.58    0.10   0.000   0.200   0.000    0.00
  19.100   16.67   -0.16    0.16   0.000   0.200   0.000    0.00
  19.150   17.11    0.17    0.09   0.000   0.200   0.000    0.00
  19.200   17.23    0.51    0.72   0.000   0.200   0.000    0.00
  19.250   17.19   -1.82    0.81   0.000   0.200   0.000    0.00
  19.300   16.94    0.23    1.28   0.000   0.200   0.000    0.00
  19.350   17.27    3.35    1.03   0.000   0.200   0.000    0.00
  19.400   17.01    2.09    0.45   0.000   0.200   0.000    0.00
  19.450   17.33    5.40    0.18   0.000   0.200   0.000    0.00
  19.500   16.56    3.99    0.20   0.000   0.200   0.000    0.00
  19.550   15.90   -0.76    0.72   0.000   0.200   0.000    0.00
  19.600   16.25    0.23    0.06   0.000   0.200   0.000    0.00
  19.650   16.19    2.06   -0.28   0.000   0.200   0.000    0.00
  19.700   15.87    0.40   -0.02   0.000   0.200   0.000    0.00
  19.750   15.71    1.11   -0.29   0.000   0.200   0.000    0.00
  19.800   15.70    0.29   -0.73   0.000   0.200   0.000    0.00
  19.850   15.99   -2.25   -0.39   0.000   0.200   0.000    0.00
  19.900   16.16   -2.31   -0.30   0.000   0.200   0.000    0.00
  19.950   16.32   -1.74    0.73   0.000   0.200   0.000    0.00
  20.000   16.51   -5.63    0.75   0.000   0.200   0.000    0.00
  20.050   16.28   -5.48    0.90   0.000   0.200   0.000    0.00
  20.100   16.86   -3.35    1.42   0.000   0.200   0.000    0.00
  20.150   16.78   -2.93    1.92   0.000   0.200   0.000    0.00
  20.200   16.34   -0.21    1.27   0.000   0.200   0.000    0.00
  20.250   16.71    0.68    0.13   0.000   0.200   0.000    0.00
  20.300   16.39   -2.09   -0.70   0.000   0.200   0.000    0.00
  20.350   16.26   -1.55   -1.03   0.000   0.200   0.000    0.00
  20.400   16.31   -0.09   -0.82   0.000   0.200   0.000    0.00
  20.450   16.29    2.34   -0.36   0.000   0.200   0.000    0.00
  20.500   16.20    1.39   -1.02   0.000   0.200   0.000    0.00
  20.550   15.53    0.47   -0.97   0.000   0.200   0.000    0.00
  20.600   15.35   -0.42   -0.61   0.000   0.200   0.000    0.00
  20.650   15.24   -0.47   -0.87   0.000   0.200   0.000    0.00
  20.700   15.51   -3.00    0.59   0.000   0.200   0.000    0.00
  20.750   16.02   -4.47    0.36   0.000   0.200   0.000    0.00
  20.800   15.88   -4.01    0.28   0.000   0.200   0.000    0.00
  20.850   15.96   -6.83   -0.19   0.000   0.200   0.000    0.00
  20.900   15.37   -4.61   -0.45   0.000   0.200   0.000    0.00
  20.950   15.76   -4.07   -0.40   0.000   0.200   0.000    0.00
  21.000   16.27   -3.02    0.37   0.000   0.200   0.000    0.00
  21.050   15.95   -3.60    0.32   0.000   0.200   0.000    0.00
  21.100   16.63   -1.75    0.11   0.000   0.200   0.000    0.00
  21.150   17.24   -1.00    0.67   0.000   0.200   0.000    0.00
  21.200   17.44   -1.71    0.88   0.000   0.200   0.000    0.00
  21.250   17.22   -1.91    1.17   0.000   0.200   0.000    0.00
  21.300   17.11   -4.39    0.58   0.000   0.200   0.000    0.00
  21.350   17.30   -6.49    0.71   0.000   0.200   0.000    0.00
  21.400   17.43   -6.27    1.17   0.000   0.200   0.000    0.00
  21.450   17.14   -5.47    1.80   0.000   0.200   0.000    0.00
  21.500   16.85   -3.64    1.63   0.000   0.200   0.000    0.00
  21.550   16.71   -4.63    1.13   0.000   0.200   0.000    0.00
  21.600   16.69   -4.56    1.18   0.000   0.200   0.000    0.00
  21.650   16.66   -4.32    1.36   0.000   0.200   0.000    0.00
  21.700   16.89   -2.19    1.31   0.000   0.200   0.000    0.00
  21.750   16.53    0.88    1.92   0.000   0.200   0.000    0.00
  21.800   16.63   -0.84    1.86   0.000   0.200   0.000    0.00
  21.850   16.49   -2.88    2.02   0.000   0.200   0.000    0.00
  21.900   16.09   -2.09    1.80   0.000   0.200   0.000    0.00
  21.950   15.87   -3.44    1.48   0.000   0.200   0.000    0.00
  22.000   15.80   -5.90    1.99   0.000   0.200   0.000    0.00
  22.050   16.16   -7.38    1.96   0.000   0.200   0.000    0.00
  22.100   16.60   -6.28    1.60   0.000   0.200   0.000    0.00
  22.150   16.08   -5.16    1.75   0.000   0.200   0.000    0.00
  22.200   16.00   -4.95    1.49   0.000   0.200   0.000    0.00
  22.250   15.92   -7.34    1.18   0.000   0.200   0.000    0.00
  22.300   16.35   -9.15    0.99   0.000   0.200   0.000    0.00
  22.350   15.68   -8.48    0.98   0.000   0.200   0.000    0.00