! This hub-height wind-speed file was generated by TurbSim (v1.06.00, 21-Sep-2012) on 16-Jun-2018 at 18:35:31.
!
! The requested statistics for this data were:
!    Mean Total Wind Speed =    7.000 m/s
!    Turbulence Intensity  =   21.700%
!
!   Time  HorSpd  WndDir  VerSpd  HorShr  VerShr  LnVShr  GstSpd
!  (sec)   (m/s)   (deg)   (m/s)     (-)     (-)     (-)   (m/s)
   0.000    7.73   22.36   -0.76   0.000   0.200   0.000    0.00
   0.050    7.54   22.25   -0.71   0.000   0.200   0.000    0.00
   0.100    7.35   19.71   -0.58   0.000   0.200   0.000    0.00
   0.150    7.52   14.88   -0.54   0.000   0.200   0.000    0.00
   0.200    7.51   14.87   -0.73   0.000   0.200   0.000    0.00
   0.250    7.44   15.30   -0.30   0.000   0.200   0.000    0.00
   0.300    7.45   12.89   -0.12   0.000   0.200   0.000    0.00
   0.350    7.55   13.89    0.20   0.000   0.200   0.000    0.00
   0.400    7.56   14.74    0.53   0.000   0.200   0.000    0.00
   0.450    7.74   13.45    0.08   0.000   0.200   0.000    0.00
   0.500    8.07   15.13    0.10   0.000   0.200   0.000    0.00
   0.550    7.79   14.78    0.36   0.000   0.200   0.000    0.00
   0.600    7.80   16.29    0.19   0.000   0.200   0.000    0.00
   0.650    8.31   16.89   -0.08   0.000   0.200   0.000    0.00
   0.700    8.12   17.53    0.01   0.000   0.200   0.000    0.00
   0.750    8.22   13.76    0.11   0.000   0.200   0.000    0.00
   0.800    8.06   13.58    0.11   0.000   0.200   0.000    0.00
   0.850    8.02   15.18    0.02   0.000   0.200   0.000    0.00
   0.900    7.85   14.02    0.25   0.000   0.200   0.000    0.00
   0.950    7.90   13.04    0.25   0.000   0.200   0.000    0.00
   1.000    7.87   12.60   -0.01   0.000   0.200   0.000    0.00
   1.050    7.75   11.87    0.13   0.000   0.200   0.000    0.00
   1.100    8.13   14.21    0.14   0.000   0.200   0.000    0.00
   1.150    8.09   16.00   -0.10   0.000   0.200   0.000    0.00
   1.200    8.11   12.98    0.11   0.000   0.200   0.000    0.00
   1.250    7.98   12.98    0.12   0.000   0.200   0.000    0.00
   1.300    8.11   13.61   -0.13   0.000   0.200   0.000    0.00
   1.350    8.40   15.62   -0.19   0.000   0.200   0.000    0.00
   1.400    8.38   13.49    0.11   0.000   0.200   0.000    0.00
   1.450    8.47   10.32    0.01   0.000   0.200   0.000    0.00
   1.500    8.30   13.01   -0.25   0.000   0.200   0.000    0.00
   1.550    8.44   11.59   -0.37   0.000   0.200   0.000    0.00
   1.600    8.47   11.17   -0.54   0.000   0.200   0.000    0.00
   1.650    8.57   10.21   -0.52   0.000   0.200   0.000    0.00
   1.700    8.42   10.81   -0.64   0.000   0.200   0.000    0.00
   1.750    8.28   10.06   -0.65   0.000   0.200   0.000    0.00
   1.800    8.26    9.90   -0.75   0.000   0.200   0.000    0.00
   1.850    8.37   11.22   -0.53   0.000   0.200   0.000    0.00
   1.900    8.19   13.96   -0.65   0.000   0.200   0.000    0.00
   1.950    8.10   14.41   -0.86   0.000   0.200   0.000    0.00
   2.000    8.46   16.50   -0.49   0.000   0.200   0.000    0.00
   2.050    8.34   16.38   -0.26   0.000   0.200   0.000    0.00
   2.100    8.37   16.23   -0.25   0.000   0.200   0.000    0.00
   2.150    8.35   17.67   -0.46   0.000   0.200   0.000    0.00
   2.200    8.15   15.18   -0.25   0.000   0.200   0.000    0.00
   2.250    8.45   12.97   -0.02   0.000   0.200   0.000    0.00
   2.300    8.37   15.44    0.06   0.000   0.200   0.000    0.00
   2.350    8.72   17.63   -0.05   0.000   0.200   0.000    0.00
   2.400    8.74   19.20    0.19   0.000   0.200   0.000    0.00
   2.450    8.82   19.08    0.05   0.000   0.200   0.000    0.00
   2.500    8.72   17.61   -0.25   0.000   0.200   0.000    0.00
   2.550    8.79   15.87   -0.33   0.000   0.200   0.000    0.00
   2.600    8.59   18.90   -0.51   0.000   0.200   0.000    0.00
   2.650    8.54   23.38   -0.77   0.000   0.200   0.000    0.00
   2.700    8.41   20.71   -0.48   0.000   0.200   0.000    0.00
   2.750    8.44   22.54   -0.46   0.000   0.200   0.000    0.00
   2.800    8.04   19.27   -0.86   0.000   0.200   0.000    0.00
   2.850    7.88   20.05   -1.03   0.000   0.200   0.000    0.00
   2.900    7.74   19.14   -1.33   0.000   0.200   0.000    0.00
   2.950    7.99   17.42   -1.12   0.000   0.200   0.000    0.00
   3.000    7.88   17.36   -0.89   0.000   0.200   0.000    0.00
   3.050    7.99   19.19   -1.26   0.000   0.200   0.000    0.00
   3.100    7.72   18.39   -1.16   0.000   0.200   0.000    0.00
   3.150    7.42   17.37   -1.20   0.000   0.200   0.000    0.00
   3.200    7.70   16.85   -1.08   0.000   0.200   0.000    0.00
   3.250    8.03   16.40   -0.82   0.000   0.200   0.000    0.00
   3.300    7.78   17.08   -0.72   0.000   0.200   0.000    0.00
   3.350    7.84   17.84   -0.59   0.000   0.200   0.000    0.00
   3.400    7.74   19.41   -0.75   0.000   0.200   0.000    0.00
   3.450    7.88   18.84   -0.50   0.000   0.200   0.000    0.00
   3.500    7.77   17.46   -0.54   0.000   0.200   0.000    0.00
   3.550    7.86   17.20   -0.52   0.000   0.200   0.000    0.00
   3.600    8.34   17.04   -0.50   0.000   0.200   0.000    0.00
   3.650    8.33   17.45   -0.45   0.000   0.200   0.000    0.00
   3.700    8.36   18.53   -0.51   0.000   0.200   0.000    0.00
   3.750    8.81   19.81   -0.35   0.000   0.200   0.000    0.00
   3.800    8.54   20.65   -0.39   0.000   0.200   0.000    0.00
   3.850    8.95   20.70   -0.26   0.000   0.200   0.000    0.00
   3.900    9.04   21.11   -0.19   0.000   0.200   0.000    0.00
   3.950    9.17   22.86   -0.22   0.000   0.200   0.000    0.00
   4.000    8.72   22.97   -0.26   0.000   0.200   0.000    0.00
   4.050    8.60   20.09   -0.31   0.000   0.200   0.000    0.00
   4.100    8.30   21.85   -0.04   0.000   0.200   0.000    0.00
   4.150    8.30   22.63   -0.18   0.000   0.200   0.000    0.00
   4.200    8.34   23.62    0.05   0.000   0.200   0.000    0.00
   4.250    8.79   24.03   -0.02   0.000   0.200   0.000    0.00
   4.300    8.59   22.74   -0.18   0.000   0.200   0.000    0.00
   4.350    8.38   24.41    0.08   0.000   0.200   0.000    0.00
   4.400    8.37   22.84    0.25   0.000   0.200   0.000    0.00
   4.450    8.33   23.38    0.03   0.000   0.200   0.000    0.00
   4.500    8.84   24.27    0.28   0.000   0.200   0.000    0.00
   4.550    8.67   23.50    0.04   0.000   0.200   0.000    0.00
   4.600    8.77   24.62   -0.11   0.000   0.200   0.000    0.00
   4.650    8.77   24.86   -0.05   0.000   0.200   0.000    0.00
   4.700    8.59   26.17   -0.33   0.000   0.200   0.000    0.00
   4.750    8.68   26.93   -0.23   0.000   0.200   0.000    0.00
   4.800    8.45   25.39   -0.20   0.000   0.200   0.000    0.00
   4.850    8.43   24.46   -0.36   0.000   0.200   0.000    0.00
   4.900    8.42   25.56   -0.24   0.000   0.200   0.000    0.00
   4.950    8.91   26.56   -0.15   0.000   0.200   0.000    0.00
   5.000    8.94   27.37   -0.16   0.000   0.200   0.000    0.00
   5.050    8.36   26.17   -0.16   0.000   0.200   0.000    0.00
   5.100    8.70   25.54   -0.21   0.000   0.200   0.000    0.00
   5.150    8.70   23.61   -0.46   0.000   0.200   0.000    0.00
   5.200    9.01   20.99   -0.50   0.000   0.200   0.000    0.00
   5.250    9.07   21.01   -0.72   0.000   0.200   0.000    0.00
   5.300    9.14   22.01   -0.67   0.000   0.200   0.000    0.00
   5.350    8.68   21.41   -0.41   0.000   0.200   0.000    0.00
   5.400    8.59   23.67    0.18   0.000   0.200   0.000    0.00
   5.450    8.56   23.73   -0.11   0.000   0.200   0.000    0.00
   5.500    8.50   25.61   -0.06   0.000   0.200   0.000    0.00
   5.550    8.49   25.43   -0.17   0.000   0.200   0.000    0.00
   5.600    8.66   22.90   -0.32   0.000   0.200   0.000    0.00
   5.650    8.34   22.38   -0.40   0.000   0.200   0.000    0.00
   5.700    8.21   24.07   -0.51   0.000   0.200   0.000    0.00
   5.750    8.20   23.65   -0.51   0.000   0.200   0.000    0.00
   5.800    8.18   23.18   -0.35   0.000   0.200   0.000    0.00
   5.850    8.28   23.48   -0.23   0.000   0.200   0.000    0.00
   5.900    8.14   21.18   -0.25   0.000   0.200   0.000    0.00
   5.950    8.23   22.34   -0.06   0.000   0.200   0.000    0.00
   6.000    8.28   20.63   -0.27   0.000   0.200   0.000    0.00
   6.050    8.42   21.42   -0.44   0.000   0.200   0.000    0.00
   6.100    8.21   22.44   -0.15   0.000   0.200   0.000    0.00
   6.150    8.25   24.58   -0.03   0.000   0.200   0.000    0.00
   6.200    8.36   26.06   -0.32   0.000   0.200   0.000    0.00
   6.250    8.20   26.50   -0.65   0.000   0.200   0.000    0.00
   6.300    8.18   25.17   -0.54   0.000   0.200   0.000    0.00
   6.350    7.70   21.94   -0.36   0.000   0.200   0.000    0.00
   6.400    7.50   20.49   -0.46   0.000   0.200   0.000    0.00
   6.450    7.36   21.80   -0.58   0.000   0.200   0.000    0.00
   6.500    7.36   20.40   -0.50   0.000   0.200   0.000    0.00
   6.550    7.12   22.45   -0.42   0.000   0.200   0.000    0.00
   6.600    7.44   25.03   -0.35   0.000   0.200   0.000    0.00
   6.650    7.56   27.38   -0.31   0.000   0.200   0.000    0.00
   6.700    7.56   23.84   -0.75   0.000   0.200   0.000    0.00
   6.750    6.99   19.99   -0.76   0.000   0.200   0.000    0.00
   6.800    6.70   22.50   -0.50   0.000   0.200   0.000    0.00
   6.850    7.08   24.78   -0.42   0.000   0.200   0.000    0.00
   6.900    7.15   23.61   -0.48   0.000   0.200   0.000    0.00
   6.950    7.42   22.75   -0.39   0.000   0.200   0.000    0.00
   7.000    7.29   26.98   -0.74   0.000   0.200   0.000    0.00
   7.050    7.33   24.71   -0.70   0.000   0.200   0.000    0.00
   7.100    7.62   24.21   -0.57   0.000   0.200   0.000    0.00
   7.150    7.69   20.70   -0.49   0.000   0.200   0.000    0.00
   7.200    7.57   20.58   -0.42   0.000   0.200   0.000    0.00
   7.250    7.54   22.14   -0.61   0.000   0.200   0.000    0.00
   7.300    7.67   20.48   -0.13   0.000   0.200   0.000    0.00
   7.350    8.15   19.81   -0.07   0.000   0.200   0.000    0.00
   7.400    8.40   21.03   -0.11   0.000   0.200   0.000    0.00
   7.450    8.06   20.12   -0.40   0.000   0.200   0.000    0.00
   7.500    7.93   20.62   -0.32   0.000   0.200   0.000    0.00
   7.550    7.85   20.77   -0.29   0.000   0.200   0.000    0.00
   7.600    7.57   21.46   -0.22   0.000   0.200   0.000    0.00
   7.650    7.68   21.76    0.31   0.000   0.200   0.000    0.00
   7.700    7.79   22.99    0.21   0.000   0.200   0.000    0.00
   7.750    7.77   25.17    0.46   0.000   0.200   0.000    0.00
   7.800    7.74   22.60    0.84   0.000   0.200   0.000    0.00
   7.850    7.89   21.92    0.50   0.000   0.200   0.000    0.00
   7.900    8.18   23.16    0.57   0.000   0.200   0.000    0.00
   7.950    8.26   21.65    0.88   0.000   0.200   0.000    0.00
   8.000    8.02   21.77    0.75   0.000   0.200   0.000    0.00
   8.050    8.14   20.81    0.26   0.000   0.200   0.000    0.00
   8.100    8.43   20.77    0.07   0.000   0.200   0.000    0.00
   8.150    8.05   22.48    0.11   0.000   0.200   0.000    0.00
   8.200    8.03   22.53    0.60   0.000   0.200   0.000    0.00
   8.250    8.35   22.74    0.78   0.000   0.200   0.000    0.00
   8.300    8.47   24.10    1.02   0.000   0.200   0.000    0.00
   8.350    8.57   26.02    0.84   0.000   0.200   0.000    0.00
   8.400    8.42   26.24    0.27   0.000   0.200   0.000    0.00
   8.450    8.34   26.21    0.20   0.000   0.200   0.000    0.00
   8.500    8.38   26.20   -0.12   0.000   0.200   0.000    0.00
   8.550    8.71   26.04   -0.13   0.000   0.200   0.000    0.00
   8.600    8.55   24.69   -0.08   0.000   0.200   0.000    0.00
   8.650    8.66   25.18   -0.14   0.000   0.200   0.000    0.00
   8.700    8.68   24.11    0.36   0.000   0.200   0.000    0.00
   8.750    8.77   23.04    0.20   0.000   0.200   0.000    0.00
   8.800    8.44   20.80    0.62   0.000   0.200   0.000    0.00
   8.850    8.27   20.78    0.51   0.000   0.200   0.000    0.00
   8.900    8.01   20.50    0.16   0.000   0.200   0.000    0.00
   8.950    7.98   22.89   -0.04   0.000   0.200   0.000    0.00
   9.000    7.73   22.37    0.25   0.000   0.200   0.000    0.00
   9.050    7.35   21.52    0.22   0.000   0.200   0.000    0.00
   9.100    7.75   20.95   -0.14   0.000   0.200   0.000    0.00
   9.150    7.88   18.41   -0.20   0.000   0.200   0.000    0.00
   9.200    7.64   19.74    0.00   0.000   0.200   0.000    0.00
   9.250    7.51   21.77    0.70   0.000   0.200   0.000    0.00
   9.300    7.62   23.09    0.55   0.000   0.200   0.000    0.00
   9.350    7.04   23.97    0.54   0.000   0.200   0.000    0.00
   9.400    7.09   26.51    0.38   0.000   0.200   0.000    0.00
   9.450    6.92   24.69    0.47   0.000   0.200   0.000    0.00
   9.500    7.13   24.90    0.66   0.000   0.200   0.000    0.00
   9.550    7.13   24.68    0.24   0.000   0.200   0.000    0.00
   9.600    7.00   24.74    0.22   0.000   0.200   0.000    0.00
   9.650    7.17   24.67    0.35   0.000   0.200   0.000    0.00
   9.700    7.09   23.61   -0.01   0.000   0.200   0.000    0.00
   9.750    7.30   24.91   -0.10   0.000   0.200   0.000    0.00
   9.800    7.48   26.14    0.12   0.000   0.200   0.000    0.00
   9.850    7.64   23.98    0.06   0.000   0.200   0.000    0.00
   9.900    7.44   21.98    0.11   0.000   0.200   0.000    0.00
   9.950    7.67   21.26    0.25   0.000   0.200   0.000    0.00
  10.000    7.94   20.50    0.29   0.000   0.200   0.000    0.00
  10.050    7.50   23.36    0.38   0.000   0.200   0.000    0.00
  10.100    7.41   20.81    0.27   0.000   0.200   0.000    0.00
  10.150    7.62   22.46    0.30   0.000   0.200   0.000    0.00
  10.200    7.29   19.42    0.37   0.000   0.200   0.000    0.00
  10.250    7.11   19.64    0.63   0.000   0.200   0.000    0.00
  10.300    7.06   20.03    0.41   0.000   0.200   0.000    0.00
  10.350    6.91   20.33    0.47   0.000   0.200   0.000    0.00
  10.400    6.91   19.34    0.49   0.000   0.200   0.000    0.00
  10.450    7.03   19.90    0.27   0.000   0.200   0.000    0.00
  10.500    6.91   16.05    0.24   0.000   0.200   0.000    0.00
  10.550    7.03   15.09    0.15   0.000   0.200   0.000    0.00
  10.600    6.98   13.79   -0.03   0.000   0.200   0.000    0.00
  10.650    7.00   13.10    0.31   0.000   0.200   0.000    0.00
  10.700    7.11    7.55    0.46   0.000   0.200   0.000    0.00
  10.750    6.96    8.86    0.54   0.000   0.200   0.000    0.00
  10.800    6.97    9.55    0.39   0.000   0.200   0.000    0.00
  10.850    6.72    8.16    0.50   0.000   0.200   0.000    0.00
  10.900    6.69    9.23    0.65   0.000   0.200   0.000    0.00
  10.950    6.78   10.71    0.59   0.000   0.200   0.000    0.00
  11.000    6.84   11.46    0.32   0.000   0.200   0.000    0.00
  11.050    6.58   10.57    0.63   0.000   0.200   0.000    0.00
  11.100    6.51    9.25    0.89   0.000   0.200   0.000    0.00
  11.150    6.40    9.85    0.77   0.000   0.200   0.000    0.00
  11.200    6.65    8.70    0.81   0.000   0.200   0.000    0.00
  11.250    6.45    8.13    0.96   0.000   0.200   0.000    0.00
  11.300    6.31    9.80    0.94   0.000   0.200   0.000    0.00
  11.350    6.31   12.99    0.75   0.000   0.200   0.000    0.00
  11.400    6.38   14.49    0.66   0.000   0.200   0.000    0.00
  11.450    6.75   14.35    0.60   0.000   0.200   0.000    0.00
  11.500    7.03   15.17    0.26   0.000   0.200   0.000    0.00
  11.550    7.05   15.35    0.51   0.000   0.200   0.000    0.00
  11.600    7.07   16.21    1.02   0.000   0.200   0.000    0.00
  11.650    6.99   18.44    0.88   0.000   0.200   0.000    0.00
  11.700    6.87   19.13    0.68   0.000   0.200   0.000    0.00
  11.750    6.99   16.53    0.95   0.000   0.200   0.000    0.00
  11.800    7.11   16.23    0.86   0.000   0.200   0.000    0.00
  11.850    7.33   16.01    1.01   0.000   0.200   0.000    0.00
  11.900    7.40   16.51    0.97   0.000   0.200   0.000    0.00
  11.950    7.23   17.88    0.91   0.000   0.200   0.000    0.00
  12.000    6.90   14.87    1.00   0.000   0.200   0.000    0.00
  12.050    6.70   14.36    0.60   0.000   0.200   0.000    0.00
  12.100    6.44   16.17    0.54   0.000   0.200   0.000    0.00
  12.150    6.13   16.10    0.06   0.000   0.200   0.000    0.00
  12.200    6.10   13.56   -0.03   0.000   0.200   0.000    0.00
  12.250    6.32   14.65    0.34   0.000   0.200   0.000    0.00
  12.300    6.33   15.16    0.35   0.000   0.200   0.000    0.00
  12.350    6.34   16.48    0.17   0.000   0.200   0.000    0.00
  12.400    6.42   18.38    0.24   0.000   0.200   0.000    0.00
  12.450    5.95   17.26    0.21   0.000   0.200   0.000    0.00
  12.500    5.86   16.88   -0.01   0.000   0.200   0.000    0.00
  12.550    5.66   16.53    0.25   0.000   0.200   0.000    0.00
  12.600    5.71   14.52    0.55   0.000   0.200   0.000    0.00
  12.650    5.38   13.19    0.57   0.000   0.200   0.000    0.00
  12.700    5.65   11.11    0.42   0.000   0.200   0.000    0.00
  12.750    5.65    9.24    0.35   0.000   0.200   0.000    0.00
  12.800    6.06   12.10    0.07   0.000   0.200   0.000    0.00
  12.850    6.05   10.17    0.03   0.000   0.200   0.000    0.00
  12.900    6.12   11.00    0.21   0.000   0.200   0.000    0.00
  12.950    5.82    9.99    0.35   0.000   0.200   0.000    0.00
  13.000    6.05    9.94    0.42   0.000   0.200   0.000    0.00
  13.050    5.66    9.71    0.76   0.000   0.200   0.000    0.00
  13.100    5.65    9.88    0.49   0.000   0.200   0.000    0.00
  13.150    5.45    7.65    0.44   0.000   0.200   0.000    0.00
  13.200    5.58    9.32    0.68   0.000   0.200   0.000    0.00
  13.250    6.01   10.04    0.55   0.000   0.200   0.000    0.00
  13.300    6.01   11.00    0.21   0.000   0.200   0.000    0.00
  13.350    5.70    9.06    0.04   0.000   0.200   0.000    0.00
  13.400    5.75    8.71    0.01   0.000   0.200   0.000    0.00
  13.450    5.58    6.65   -0.02   0.000   0.200   0.000    0.00
  13.500    5.71    7.94    0.11   0.000   0.200   0.000    0.00
  13.550    5.44    8.40    0.22   0.000   0.200   0.000    0.00
  13.600    5.64    6.13    0.17   0.000   0.200   0.000    0.00
  13.650    6.20    7.47    0.54   0.000   0.200   0.000    0.00
  13.700    5.91    8.80    0.50   0.000   0.200   0.000    0.00
  13.750    5.89    9.36    0.57   0.000   0.200   0.000    0.00
  13.800    5.82    7.14    0.79   0.000   0.200   0.000    0.00
  13.850    5.94    8.17    0.63   0.000   0.200   0.000    0.00
  13.900    6.03    8.53    0.56   0.000   0.200   0.000    0.00
  13.950    6.20    9.14    0.68   0.000   0.200   0.000    0.00
  14.000    6.53    9.21    0.62   0.000   0.200   0.000    0.00
  14.050    6.72    6.16   -0.03   0.000   0.200   0.000    0.00
  14.100    6.74    5.62   -0.04   0.000   0.200   0.000    0.00
  14.150    6.91    4.05    0.44   0.000   0.200   0.000    0.00
  14.200    6.85    2.93    0.46   0.000   0.200   0.000    0.00
  14.250    6.59    2.45    0.52   0.000   0.200   0.000    0.00
  14.300    6.88   -0.33    0.40   0.000   0.200   0.000    0.00
  14.350    6.88   -2.21    0.33   0.000   0.200   0.000    0.00
  14.400    6.88   -2.46    0.65   0.000   0.200   0.000    0.00
  14.450    6.82   -4.23    0.19   0.000   0.200   0.000    0.00
  14.500    6.37   -4.91    0.24   0.000   0.200   0.000    0.00
  14.550    6.28   -6.94   -0.01   0.000   0.200   0.000    0.00
  14.600    6.12   -5.85   -0.14   0.000   0.200   0.000    0.00
  14.650    6.03   -2.73   -0.31   0.000   0.200   0.000    0.00
  14.700    5.95    0.09    0.05   0.000   0.200   0.000    0.00
  14.750    6.06   -2.03    0.20   0.000   0.200   0.000    0.00
  14.800    5.60   -7.48    0.27   0.000   0.200   0.000    0.00
  14.850    5.67   -6.01    0.46   0.000   0.200   0.000    0.00
  14.900    5.83   -6.92    0.42   0.000   0.200   0.000    0.00
  14.950    6.05   -5.37    0.13   0.000   0.200   0.000    0.00
  15.000    6.06   -9.14   -0.23   0.000   0.200   0.000    0.00
  15.050    6.26   -7.41   -0.05   0.000   0.200   0.000    0.00
  15.100    6.37   -6.11    0.33   0.000   0.200   0.000    0.00
  15.150    6.73   -7.21    0.37   0.000   0.200   0.000    0.00
  15.200    6.51   -6.52    0.13   0.000   0.200   0.000    0.00
  15.250    5.76   -7.21    0.16   0.000   0.200   0.000    0.00
  15.300    5.85   -7.11    0.35   0.000   0.200   0.000    0.00
  15.350    5.99   -5.30    0.18   0.000   0.200   0.000    0.00
  15.400    6.28   -5.07    0.65   0.000   0.200   0.000    0.00
  15.450    6.07   -4.59    0.53   0.000   0.200   0.000    0.00
  15.500    6.35   -3.93    0.69   0.000   0.200   0.000    0.00
  15.550    6.38   -2.01    0.87   0.000   0.200   0.000    0.00
  15.600    6.79   -2.06    0.66   0.000   0.200   0.000    0.00
  15.650    6.96   -3.46    0.70   0.000   0.200   0.000    0.00
  15.700    6.91   -1.87    0.89   0.000   0.200   0.000    0.00
  15.750    6.84   -3.95    0.75   0.000   0.200   0.000    0.00
  15.800    6.97   -7.08    0.86   0.000   0.200   0.000    0.00
  15.850    6.96   -4.96    0.54   0.000   0.200   0.000    0.00
  15.900    7.07   -6.92    0.31   0.000   0.200   0.000    0.00
  15.950    7.21   -7.33    0.57   0.000   0.200   0.000    0.00
  16.000    7.42   -6.20    1.08   0.000   0.200   0.000    0.00
  16.050    7.58   -6.96    0.83   0.000   0.200   0.000    0.00
  16.100    7.28   -7.18    0.65   0.000   0.200   0.000    0.00
  16.150    7.42   -5.04    1.01   0.000   0.200   0.000    0.00
  16.200    7.32   -2.13    1.15   0.000   0.200   0.000    0.00
  16.250    7.18   -2.64    1.43   0.000   0.200   0.000    0.00
  16.300    6.98   -2.89    1.31   0.000   0.200   0.000    0.00
  16.350    7.28   -3.05    1.70   0.000   0.200   0.000    0.00
  16.400    7.25   -4.62    1.57   0.000   0.200   0.000    0.00
  16.450    7.65   -3.63    1.23   0.000   0.200   0.000    0.00
  16.500    8.08   -4.61    1.12   0.000   0.200   0.000    0.00
  16.550    7.59   -3.83    1.02   0.000   0.200   0.000    0.00
  16.600    7.53   -4.31    0.94   0.000   0.200   0.000    0.00
  16.650    7.47   -2.40    0.86   0.000   0.200   0.000    0.00
  16.700    7.43   -0.67    0.69   0.000   0.200   0.000    0.00
  16.750    7.28   -0.62    0.85   0.000   0.200   0.000    0.00
  16.800    7.12   -2.26    1.16   0.000   0.200   0.000    0.00
  16.850    7.24   -2.26    1.05   0.000   0.200   0.000    0.00
  16.900    7.28   -2.76    0.64   0.000   0.200   0.000    0.00
  16.950    7.26   -1.18    0.38   0.000   0.200   0.000    0.00
  17.000    7.44    3.15    0.47   0.000   0.200   0.000    0.00
  17.050    7.33    1.80    0.57   0.000   0.200   0.000    0.00
  17.100    7.33    1.39    0.67   0.000   0.200   0.000    0.00
  17.150    7.29    1.30    0.40   0.000   0.200   0.000    0.00
  17.200    7.20    2.83    0.08   0.000   0.200   0.000    0.00
  17.250    7.14    3.17   -0.30   0.000   0.200   0.000    0.00
  17.300    7.24    1.87   -0.07   0.000   0.200   0.000    0.00
  17.350    7.02    2.27   -0.39   0.000   0.200   0.000    0.00
  17.400    6.95    6.68   -0.44   0.000   0.200   0.000    0.00
  17.450    7.29    7.44    0.16   0.000   0.200   0.000    0.00
  17.500    7.51    9.20    0.20   0.000   0.200   0.000    0.00
  17.550    7.60    8.98    0.07   0.000   0.200   0.000    0.00
  17.600    7.45    7.93   -0.05   0.000   0.200   0.000    0.00
  17.650    7.25    6.84    0.10   0.000   0.200   0.000    0.00
  17.700    7.46    6.51    0.13   0.000   0.200   0.000    0.00
  17.750    7.34    8.42    0.26   0.000   0.200   0.000    0.00
  17.800    7.24    9.07    0.47   0.000   0.200   0.000    0.00
  17.850    7.22    7.20    0.69   0.000   0.200   0.000    0.00
  17.900    7.33    7.65    0.89   0.000   0.200   0.000    0.00
  17.950    7.34    9.84    0.52   0.000   0.200   0.000    0.00
  18.000    7.46    7.91    0.59   0.000   0.200   0.000    0.00
  18.050    7.82    7.76    0.56   0.000   0.200   0.000    0.00
  18.100    7.94    6.74    0.52   0.000   0.200   0.000    0.00
  18.150    7.94    8.61    0.71   0.000   0.200   0.000    0.00
  18.200    7.99   10.61    1.04   0.000   0.200   0.000    0.00
  18.250    7.91    9.88    1.03   0.000   0.200   0.000    0.00
  18.300    7.77    9.00    0.77   0.000   0.200   0.000    0.00
  18.350    7.76    6.33    0.48   0.000   0.200   0.000    0.00
  18.400    7.72    5.13    0.64   0.000   0.200   0.000    0.00
  18.450    7.64    4.03    0.55   0.000   0.200   0.000    0.00
  18.500    7.66    5.87    0.15   0.000   0.200   0.000    0.00
  18.550    7.58    6.78    0.10   0.000   0.200   0.000    0.00
  18.600    7.81    8.07    0.17   0.000   0.200   0.000    0.00
  18.650    7.94    7.80    0.01   0.000   0.200   0.000    0.00
  18.700    7.78    7.63   -0.29   0.000   0.200   0.000    0.00
  18.750    7.65    7.47   -0.62   0.000   0.200   0.000    0.00
  18.800    7.50    7.97   -0.84   0.000   0.200   0.000    0.00
  18.850    7.70    7.89   -0.44   0.000   0.200   0.000    0.00
  18.900    7.97    5.85   -0.62   0.000   0.200   0.000    0.00
  18.950    8.01    5.73   -0.73   0.000   0.200   0.000    0.00
  19.000    7.96    7.40   -0.73   0.000   0.200   0.000    0.00
  19.050    8.05    6.07   -0.90   0.000   0.200   0.000    0.00
  19.100    8.14    6.12   -0.73   0.000   0.200   0.000    0.00
  19.150    8.12    7.87   -0.73   0.000   0.200   0.000    0.00
  19.200    8.29    8.88   -0.59   0.000   0.200   0.000    0.00
  19.250    8.34    7.58   -0.37   0.000   0.200   0.000    0.00
  19.300    8.26    8.54   -0.30   0.000   0.200   0.000    0.00
  19.350    8.14    9.49   -0.20   0.000   0.200   0.000    0.00
  19.400    8.34    8.56   -0.42   0.000   0.200   0.000    0.00
  19.450    8.55    9.08   -0.40   0.000   0.200   0.000    0.00
  19.500    8.38    7.44   -0.29   0.000   0.200   0.000    0.00
  19.550    8.61    5.34   -0.20   0.000   0.200   0.000    0.00
  19.600    8.47    3.16   -0.23   0.000   0.200   0.000    0.00
  19.650    8.47    1.89   -0.61   0.000   0.200   0.000    0.00
  19.700    8.37    3.92   -0.68   0.000   0.200   0.000    0.00
  19.750    8.06    4.70   -0.58   0.000   0.200   0.000    0.00
  19.800    8.13    8.02   -0.24   0.000   0.200   0.000    0.00
  19.850    8.07    6.95   -0.66   0.000   0.200   0.000    0.00
  19.900    8.19    7.08   -0.95   0.000   0.200   0.000    0.00
  19.950    8.19    6.72   -0.65   0.000   0.200   0.000    0.00
  20.000    8.07    6.93   -0.46   0.000   0.200   0.000    0.00
  20.050    7.90    9.22   -0.22   0.000   0.200   0.000    0.00
  20.100    8.47    9.17    0.08   0.000   0.200   0.000    0.00
  20.150    8.58    9.32   -0.58   0.000   0.200   0.000    0.00
  20.200    8.60   10.71   -0.53   0.000   0.200   0.000    0.00
  20.250    8.63    9.52   -0.54   0.000   0.200   0.000    0.00
  20.300    8.72   10.24   -0.85   0.000   0.200   0.000    0.00
  20.350    8.98   12.62   -0.88   0.000   0.200   0.000    0.00
  20.400    8.60   10.59   -1.06   0.000   0.200   0.000    0.00
  20.450    8.62   11.17   -0.90   0.000   0.200   0.000    0.00
  20.500    8.44   10.75   -1.06   0.000   0.200   0.000    0.00
  20.550    8.16    9.03   -0.95   0.000   0.200   0.000    0.00
  20.600    8.17    9.43   -1.08   0.000   0.200   0.000    0.00
  20.650    8.25   12.36   -1.21   0.000   0.200   0.000    0.00
  20.700    8.37   13.24   -1.36   0.000   0.200   0.000    0.00
  20.750    8.45    9.38   -1.56   0.000   0.200   0.000    0.00
  20.800    8.29    9.27   -1.32   0.000   0.200   0.000    0.00
  20.850    8.27   10.31   -1.42   0.000   0.200   0.000    0.00
  20.900    8.69   10.62   -1.44   0.000   0.200   0.000    0.00
  20.950    8.46   12.31   -1.54   0.000   0.200   0.000    0.00
  21.000    8.38   14.03   -1.36   0.000   0.200   0.000    0.00
  21.050    7.95   12.76   -1.44   0.000   0.200   0.000    0.00
  21.100    7.92   15.12   -1.41   0.000   0.200   0.000    0.00
  21.150    8.16   16.89   -1.30   0.000   0.200   0.000    0.00
  21.200    8.14   16.73   -1.37   0.000   0.200   0.000    0.00
  21.250    8.06   16.49   -0.68   0.000   0.200   0.000    0.00
  21.300    8.13   16.32   -0.74   0.000   0.200   0.000    0.00
  21.350    8.14   13.58   -0.62   0.000   0.200   0.000    0.00
  21.400    8.47   15.11   -1.00   0.000   0.200   0.000    0.00
  21.450    8.37   11.99   -1.00   0.000   0.200   0.000    0.00
  21.500    8.14    9.41   -0.91   0.000   0.200   0.000    0.00
  21.550    8.15   10.28   -0.88   0.000   0.200   0.000    0.00
  21.600    8.44    9.09   -0.66   0.000   0.200   0.000    0.00
  21.650    8.43    7.30   -0.67   0.000   0.200   0.000    0.00
  21.700    8.27    8.19   -1.03   0.000   0.200   0.000    0.00
  21.750    8.39   11.31   -1.20   0.000   0.200   0.000    0.00
  21.800    8.63    9.89   -1.00   0.000   0.200   0.000    0.00
  21.850    8.49   11.47   -0.98   0.000   0.200   0.000    0.00
  21.900    8.83    6.84   -0.49   0.000   0.200   0.000    0.00
  21.950    8.59    7.34   -0.64   0.000   0.200   0.000    0.00
  22.000    8.57    9.94   -0.50   0.000   0.200   0.000    0.00
  22.050    8.47   11.58   -0.65   0.000   0.200   0.000    0.00
  22.100    8.56   10.12   -0.66   0.000   0.200   0.000    0.00
  22.150    8.52   11.04   -1.01   0.000   0.200   0.000    0.00
  22.200    8.49   15.75   -0.83   0.000   0.200   0.000    0.00
  22.250    8.36   13.65   -0.83   0.000   0.200   0.000    0.00
  22.300    8.31   12.66   -0.93   0.000   0.200   0.000    0.00
  22.350    8.28   12.28   -0.49   0.000   0.200   0.000    0.00