! This hub-height wind-speed file was generated by TurbSim (v1.06.00, 21-Sep-2012) on 16-Jun-2018 at 18:32:15.
!
! The requested statistics for this data were:
!    Mean Total Wind Speed =   19.000 m/s
!    Turbulence Intensity  =   19.405%
!
!   Time  HorSpd  WndDir  VerSpd  HorShr  VerShr  LnVShr  GstSpd
!  (sec)   (m/s)   (deg)   (m/s)     (-)     (-)     (-)   (m/s)
   0.000   18.92    3.22   -3.25   0.000   0.200   0.000    0.00
   0.050   17.58    2.81   -3.14   0.000   0.200   0.000    0.00
   0.100   17.45    4.29   -2.75   0.000   0.200   0.000    0.00
   0.150   17.27    3.82   -2.76   0.000   0.200   0.000    0.00
   0.200   17.69    4.62   -2.08   0.000   0.200   0.000    0.00
   0.250   18.56    3.72   -1.50   0.000   0.200   0.000    0.00
   0.300   18.16    3.72   -2.62   0.000   0.200   0.000    0.00
   0.350   17.86    2.11   -2.72   0.000   0.200   0.000    0.00
   0.400   18.99    5.38   -1.51   0.000   0.200   0.000    0.00
   0.450   19.12    5.42   -0.84   0.000   0.200   0.000    0.00
   0.500   18.30    5.56   -1.50   0.000   0.200   0.000    0.00
   0.550   18.00    5.14   -2.33   0.000   0.200   0.000    0.00
   0.600   18.02    2.99   -2.21   0.000   0.200   0.000    0.00
   0.650   17.29    6.55   -2.75   0.000   0.200   0.000    0.00
   0.700   17.39   11.53   -2.58   0.000   0.200   0.000    0.00
   0.750   17.16    9.29   -1.92   0.000   0.200   0.000    0.00
   0.800   17.95   10.32   -0.99   0.000   0.200   0.000    0.00
   0.850   18.22   11.11   -1.97   0.000   0.200   0.000    0.00
   0.900   18.29    9.75   -2.14   0.000   0.200   0.000    0.00
   0.950   18.10    6.18   -1.97   0.000   0.200   0.000    0.00
   1.000   18.12    4.07   -2.65   0.000   0.200   0.000    0.00
   1.050   19.21    6.12   -1.99   0.000   0.200   0.000    0.00
   1.100   19.10    4.79   -2.44   0.000   0.200   0.000    0.00
   1.150   18.98    8.15   -2.01   0.000   0.200   0.000    0.00
   1.200   19.40    5.81   -2.21   0.000   0.200   0.000    0.00
   1.250   18.83    4.47   -3.26   0.000   0.200   0.000    0.00
   1.300   18.43    6.47   -2.93   0.000   0.200   0.000    0.00
   1.350   18.80    4.27   -3.06   0.000   0.200   0.000    0.00
   1.400   19.38    9.15   -2.96   0.000   0.200   0.000    0.00
   1.450   19.92    4.82   -2.35   0.000   0.200   0.000    0.00
   1.500   20.33    5.90   -3.13   0.000   0.200   0.000    0.00
   1.550   19.93    3.10   -2.72   0.000   0.200   0.000    0.00
   1.600   19.62    0.97   -2.42   0.000   0.200   0.000    0.00
   1.650   18.84    1.25   -3.19   0.000   0.200   0.000    0.00
   1.700   19.54    3.92   -3.50   0.000   0.200   0.000    0.00
   1.750   18.99    1.98   -3.22   0.000   0.200   0.000    0.00
   1.800   19.12   -0.17   -3.78   0.000   0.200   0.000    0.00
   1.850   18.54    2.69   -4.24   0.000   0.200   0.000    0.00
   1.900   18.75    2.55   -3.57   0.000   0.200   0.000    0.00
   1.950   18.85   -1.21   -2.83   0.000   0.200   0.000    0.00
   2.000   18.26   -3.19   -1.86   0.000   0.200   0.000    0.00
   2.050   18.03   -3.71   -2.81   0.000   0.200   0.000    0.00
   2.100   19.92   -2.31   -1.70   0.000   0.200   0.000    0.00
   2.150   19.45    1.81   -1.43   0.000   0.200   0.000    0.00
   2.200   18.19    5.90   -1.56   0.000   0.200   0.000    0.00
   2.250   17.47    3.64   -2.36   0.000   0.200   0.000    0.00
   2.300   18.03    8.16   -2.96   0.000   0.200   0.000    0.00
   2.350   17.61   10.75   -3.48   0.000   0.200   0.000    0.00
   2.400   17.18   14.61   -3.63   0.000   0.200   0.000    0.00
   2.450   17.91   18.30   -2.90   0.000   0.200   0.000    0.00
   2.500   16.82   12.95   -3.05   0.000   0.200   0.000    0.00
   2.550   16.09   14.16   -3.27   0.000   0.200   0.000    0.00
   2.600   17.89   16.16   -3.25   0.000   0.200   0.000    0.00
   2.650   18.04   14.50   -3.01   0.000   0.200   0.000    0.00
   2.700   17.64   13.16   -3.31   0.000   0.200   0.000    0.00
   2.750   16.75   13.83   -3.42   0.000   0.200   0.000    0.00
   2.800   16.00   13.69   -2.64   0.000   0.200   0.000    0.00
   2.850   16.74    6.53   -3.67   0.000   0.200   0.000    0.00
   2.900   17.79    5.92   -4.43   0.000   0.200   0.000    0.00
   2.950   18.06    6.78   -3.78   0.000   0.200   0.000    0.00
   3.000   18.38    8.26   -3.99   0.000   0.200   0.000    0.00
   3.050   19.21   10.43   -4.18   0.000   0.200   0.000    0.00
   3.100   17.94   12.75   -3.11   0.000   0.200   0.000    0.00
   3.150   17.16   10.92   -2.04   0.000   0.200   0.000    0.00
   3.200   17.12   11.82   -3.12   0.000   0.200   0.000    0.00
   3.250   17.16    8.65   -3.58   0.000   0.200   0.000    0.00
   3.300   15.20    6.43   -4.01   0.000   0.200   0.000    0.00
   3.350   16.02    7.06   -4.15   0.000   0.200   0.000    0.00
   3.400   16.91    8.20   -4.11   0.000   0.200   0.000    0.00
   3.450   16.54    7.95   -3.60   0.000   0.200   0.000    0.00
   3.500   16.83    7.56   -3.68   0.000   0.200   0.000    0.00
   3.550   16.44   10.48   -3.75   0.000   0.200   0.000    0.00
   3.600   16.48   12.78   -4.20   0.000   0.200   0.000    0.00
   3.650   16.32   17.70   -3.34   0.000   0.200   0.000    0.00
   3.700   16.08   21.34   -2.43   0.000   0.200   0.000    0.00
   3.750   15.36   18.16   -0.64   0.000   0.200   0.000    0.00
   3.800   14.73   20.82   -1.39   0.000   0.200   0.000    0.00
   3.850   14.76   18.22   -0.08   0.000   0.200   0.000    0.00
   3.900   14.35   16.79    0.71   0.000   0.200   0.000    0.00
   3.950   14.85   19.30    0.40   0.000   0.200   0.000    0.00
   4.000   14.98   12.58    0.70   0.000   0.200   0.000    0.00
   4.050   15.19   14.48    1.94   0.000   0.200   0.000    0.00
   4.100   14.48   17.11    1.91   0.000   0.200   0.000    0.00
   4.150   14.47   13.10    1.93   0.000   0.200   0.000    0.00
   4.200   15.38   10.09    2.00   0.000   0.200   0.000    0.00
   4.250   15.45   13.14    1.70   0.000   0.200   0.000    0.00
   4.300   14.69   14.17    2.43   0.000   0.200   0.000    0.00
   4.350   13.69   10.11    2.01   0.000   0.200   0.000    0.00
   4.400   14.21   12.47    1.96   0.000   0.200   0.000    0.00
   4.450   14.96   10.15    0.78   0.000   0.200   0.000    0.00
   4.500   15.42    7.23    0.10   0.000   0.200   0.000    0.00
   4.550   14.70    6.37    0.80   0.000   0.200   0.000    0.00
   4.600   15.92    7.59    1.06   0.000   0.200   0.000    0.00
   4.650   15.89    0.95    0.36   0.000   0.200   0.000    0.00
   4.700   15.50    1.24    0.38   0.000   0.200   0.000    0.00
   4.750   13.85    1.20    0.85   0.000   0.200   0.000    0.00
   4.800   14.07   -4.53    0.28   0.000   0.200   0.000    0.00
   4.850   13.97   -6.68   -1.19   0.000   0.200   0.000    0.00
   4.900   13.68   -5.97   -0.94   0.000   0.200   0.000    0.00
   4.950   14.44    3.96   -0.37   0.000   0.200   0.000    0.00
   5.000   15.47    4.11   -1.08   0.000   0.200   0.000    0.00
   5.050   15.23    7.55   -0.13   0.000   0.200   0.000    0.00
   5.100   14.54   11.09   -1.01   0.000   0.200   0.000    0.00
   5.150   15.11    7.59   -1.44   0.000   0.200   0.000    0.00
   5.200   15.52    7.77   -0.33   0.000   0.200   0.000    0.00
   5.250   15.38    5.78   -0.09   0.000   0.200   0.000    0.00
   5.300   15.49    4.67    0.49   0.000   0.200   0.000    0.00
   5.350   15.65    9.25   -0.98   0.000   0.200   0.000    0.00
   5.400   14.83    6.79   -1.63   0.000   0.200   0.000    0.00
   5.450   14.96   13.32   -1.05   0.000   0.200   0.000    0.00
   5.500   14.74   19.13   -1.96   0.000   0.200   0.000    0.00
   5.550   15.29   21.55   -2.25   0.000   0.200   0.000    0.00
   5.600   15.19   23.48   -1.74   0.000   0.200   0.000    0.00
   5.650   14.36   19.11   -0.71   0.000   0.200   0.000    0.00
   5.700   12.86   20.93   -0.86   0.000   0.200   0.000    0.00
   5.750   12.87   18.19   -1.04   0.000   0.200   0.000    0.00
   5.800   13.84   20.67   -1.74   0.000   0.200   0.000    0.00
   5.850   13.57   21.33   -0.42   0.000   0.200   0.000    0.00
   5.900   14.25   17.90    0.89   0.000   0.200   0.000    0.00
   5.950   13.77   13.37    0.52   0.000   0.200   0.000    0.00
   6.000   12.87    8.86    0.15   0.000   0.200   0.000    0.00
   6.050   13.04    7.91    0.63   0.000   0.200   0.000    0.00
   6.100   12.54    8.48    1.08   0.000   0.200   0.000    0.00
   6.150   12.71    3.87   -0.58   0.000   0.200   0.000    0.00
   6.200   13.60   -1.09    1.00   0.000   0.200   0.000    0.00
   6.250   13.34    2.62    1.51   0.000   0.200   0.000    0.00
   6.300   13.47    4.08    0.65   0.000   0.200   0.000    0.00
   6.350   13.02   -3.29   -0.63   0.000   0.200   0.000    0.00
   6.400   13.75   -2.20   -0.64   0.000   0.200   0.000    0.00
   6.450   13.70   -3.24   -0.90   0.000   0.200   0.000    0.00
   6.500   14.10   -2.40   -0.71   0.000   0.200   0.000    0.00
   6.550   14.23    2.05   -0.40   0.000   0.200   0.000    0.00
   6.600   13.99    1.90   -0.92   0.000   0.200   0.000    0.00
   6.650   14.07   -2.44   -0.22   0.000   0.200   0.000    0.00
   6.700   14.21   -2.93   -0.72   0.000   0.200   0.000    0.00
   6.750   13.72   -1.78   -1.10   0.000   0.200   0.000    0.00
   6.800   14.26   -3.11   -0.33   0.000   0.200   0.000    0.00
   6.850   13.37    0.62   -1.14   0.000   0.200   0.000    0.00
   6.900   13.70    0.42   -0.64   0.000   0.200   0.000    0.00
   6.950   13.70    0.66    0.09   0.000   0.200   0.000    0.00
   7.000   14.25   -0.85    0.48   0.000   0.200   0.000    0.00
   7.050   14.17    0.60   -0.87   0.000   0.200   0.000    0.00
   7.100   14.47    0.64   -0.38   0.000   0.200   0.000    0.00
   7.150   14.51    0.35   -0.52   0.000   0.200   0.000    0.00
   7.200   14.33   -2.96    0.51   0.000   0.200   0.000    0.00
   7.250   14.69   -2.00    1.19   0.000   0.200   0.000    0.00
   7.300   16.05    3.71    1.51   0.000   0.200   0.000    0.00
   7.350   15.57    2.17   -0.24   0.000   0.200   0.000    0.00
   7.400   15.17    0.71    0.12   0.000   0.200   0.000    0.00
   7.450   15.21    2.61    0.01   0.000   0.200   0.000    0.00
   7.500   14.19    2.86   -0.31   0.000   0.200   0.000    0.00
   7.550   15.23   -1.60   -0.15   0.000   0.200   0.000    0.00
   7.600   14.86    1.19    1.54   0.000   0.200   0.000    0.00
   7.650   13.79   -0.88    2.10   0.000   0.200   0.000    0.00
   7.700   12.75   -4.19    0.21   0.000   0.200   0.000    0.00
   7.750   13.22   -3.99   -0.76   0.000   0.200   0.000    0.00
   7.800   13.60   -5.20    0.07   0.000   0.200   0.000    0.00
   7.850   13.28   -8.62   -0.26   0.000   0.200   0.000    0.00
   7.900   13.74   -6.93   -0.73   0.000   0.200   0.000    0.00
   7.950   14.02   -7.61   -1.86   0.000   0.200   0.000    0.00
   8.000   14.24   -8.35   -0.86   0.000   0.200   0.000    0.00
   8.050   14.42  -11.81   -0.99   0.000   0.200   0.000    0.00
   8.100   14.11  -10.31   -1.28   0.000   0.200   0.000    0.00
   8.150   15.09  -16.44   -0.33   0.000   0.200   0.000    0.00
   8.200   15.42   -7.71    0.05   0.000   0.200   0.000    0.00
   8.250   15.15   -2.64   -0.98   0.000   0.200   0.000    0.00
   8.300   15.64    0.72   -1.18   0.000   0.200   0.000    0.00
   8.350   17.30    2.32   -2.21   0.000   0.200   0.000    0.00
   8.400   17.84    1.12   -3.09   0.000   0.200   0.000    0.00
   8.450   17.41   -1.46   -2.07   0.000   0.200   0.000    0.00
   8.500   17.14   -5.38   -1.25   0.000   0.200   0.000    0.00
   8.550   16.30   -6.58   -0.72   0.000   0.200   0.000    0.00
   8.600   16.13   -8.16    0.02   0.000   0.200   0.000    0.00
   8.650   15.45   -7.61   -0.66   0.000   0.200   0.000    0.00
   8.700   15.59   -2.19   -1.20   0.000   0.200   0.000    0.00
   8.750   15.89   -0.43    0.13   0.000   0.200   0.000    0.00
   8.800   15.98   -5.36    1.14   0.000   0.200   0.000    0.00
   8.850   15.35    0.80    0.76   0.000   0.200   0.000    0.00
   8.900   15.09    4.55   -0.81   0.000   0.200   0.000    0.00
   8.950   14.75    3.39   -1.63   0.000   0.200   0.000    0.00
   9.000   15.15    5.42   -1.08   0.000   0.200   0.000    0.00
   9.050   15.78    6.89   -1.65   0.000   0.200   0.000    0.00
   9.100   15.16    5.67   -1.13   0.000   0.200   0.000    0.00
   9.150   15.47    0.94   -2.06   0.000   0.200   0.000    0.00
   9.200   15.71    5.71   -2.33   0.000   0.200   0.000    0.00
   9.250   15.27    1.04   -2.09   0.000   0.200   0.000    0.00
   9.300   15.67   -3.27   -1.46   0.000   0.200   0.000    0.00
   9.350   15.47   -3.03   -0.25   0.000   0.200   0.000    0.00
   9.400   15.50   -2.56   -0.19   0.000   0.200   0.000    0.00
   9.450   16.08   -5.21   -0.62   0.000   0.200   0.000    0.00
   9.500   16.89   -8.72   -1.27   0.000   0.200   0.000    0.00
   9.550   17.19  -16.07   -1.72   0.000   0.200   0.000    0.00
   9.600   17.44  -14.57   -3.25   0.000   0.200   0.000    0.00
   9.650   18.26  -14.99   -2.93   0.000   0.200   0.000    0.00
   9.700   18.50  -12.47   -3.09   0.000   0.200   0.000    0.00
   9.750   18.18   -9.34   -2.33   0.000   0.200   0.000    0.00
   9.800   17.56  -13.53   -3.12   0.000   0.200   0.000    0.00
   9.850   17.86  -12.01   -2.53   0.000   0.200   0.000    0.00
   9.900   18.42  -10.30   -1.25   0.000   0.200   0.000    0.00
   9.950   19.63   -7.74   -2.21   0.000   0.200   0.000    0.00
  10.000   19.50   -8.36   -3.41   0.000   0.200   0.000    0.00
  10.050   17.94   -6.24   -3.72   0.000   0.200   0.000    0.00
  10.100   17.72   -9.89   -3.23   0.000   0.200   0.000    0.00
  10.150   18.42  -11.97   -2.94   0.000   0.200   0.000    0.00
  10.200   17.25  -13.28   -3.13   0.000   0.200   0.000    0.00
  10.250   17.54  -17.34   -3.59   0.000   0.200   0.000    0.00
  10.300   17.65  -12.71   -3.21   0.000   0.200   0.000    0.00
  10.350   18.14  -10.96   -2.64   0.000   0.200   0.000    0.00
  10.400   16.97  -11.75   -1.58   0.000   0.200   0.000    0.00
  10.450   17.68  -10.80   -1.56   0.000   0.200   0.000    0.00
  10.500   18.54   -9.39    0.30   0.000   0.200   0.000    0.00
  10.550   17.97   -8.13    1.56   0.000   0.200   0.000    0.00
  10.600   18.73   -4.56    1.63   0.000   0.200   0.000    0.00
  10.650   18.36   -1.54    1.55   0.000   0.200   0.000    0.00
  10.700   17.53   -1.51    1.17   0.000   0.200   0.000    0.00
  10.750   16.47   -6.49    1.30   0.000   0.200   0.000    0.00
  10.800   16.98   -3.32    1.75   0.000   0.200   0.000    0.00
  10.850   18.34   -0.93    0.98   0.000   0.200   0.000    0.00
  10.900   19.76   -1.99    1.09   0.000   0.200   0.000    0.00
  10.950   17.67   -4.41    1.17   0.000   0.200   0.000    0.00
  11.000   18.86   -4.81    1.21   0.000   0.200   0.000    0.00
  11.050   19.99   -6.42    0.51   0.000   0.200   0.000    0.00
  11.100   20.64   -9.62    1.17   0.000   0.200   0.000    0.00
  11.150   19.47   -6.71    1.23   0.000   0.200   0.000    0.00
  11.200   20.46   -4.98    0.56   0.000   0.200   0.000    0.00
  11.250   18.52    2.22    0.36   0.000   0.200   0.000    0.00
  11.300   18.68    3.04   -0.23   0.000   0.200   0.000    0.00
  11.350   19.23    2.02   -0.84   0.000   0.200   0.000    0.00
  11.400   19.43    3.06    0.12   0.000   0.200   0.000    0.00
  11.450   19.79   -2.23   -0.42   0.000   0.200   0.000    0.00
  11.500   20.15   -2.50   -1.09   0.000   0.200   0.000    0.00
  11.550   20.51   -0.31   -0.68   0.000   0.200   0.000    0.00
  11.600   21.39   -1.52   -1.00   0.000   0.200   0.000    0.00
  11.650   20.71   -1.90    0.17   0.000   0.200   0.000    0.00
  11.700   19.51   -1.03    0.01   0.000   0.200   0.000    0.00
  11.750   19.77   -1.61    1.47   0.000   0.200   0.000    0.00
  11.800   19.94   -1.88    1.63   0.000   0.200   0.000    0.00
  11.850   19.45   -1.28    2.18   0.000   0.200   0.000    0.00
  11.900   20.32    0.73    2.20   0.000   0.200   0.000    0.00
  11.950   19.43   -1.99    2.21   0.000   0.200   0.000    0.00
  12.000   18.79   -4.21    2.59   0.000   0.200   0.000    0.00
  12.050   19.70   -4.92    1.94   0.000   0.200   0.000    0.00
  12.100   19.78   -4.09    1.79   0.000   0.200   0.000    0.00
  12.150   19.90   -5.80    1.06   0.000   0.200   0.000    0.00
  12.200   19.02   -3.90    1.88   0.000   0.200   0.000    0.00
  12.250   17.72   -2.97    2.73   0.000   0.200   0.000    0.00
  12.300   18.70   -2.35    2.26   0.000   0.200   0.000    0.00
  12.350   18.14   -1.36    0.58   0.000   0.200   0.000    0.00
  12.400   16.47    1.64    0.18   0.000   0.200   0.000    0.00
  12.450   16.79   -1.35   -0.03   0.000   0.200   0.000    0.00
  12.500   16.05   -0.10   -0.30   0.000   0.200   0.000    0.00
  12.550   15.98    2.20    0.68   0.000   0.200   0.000    0.00
  12.600   16.52    1.26    1.62   0.000   0.200   0.000    0.00
  12.650   16.11   -2.40    2.22   0.000   0.200   0.000    0.00
  12.700   16.09   -3.75    1.33   0.000   0.200   0.000    0.00
  12.750   16.43   -1.34    1.76   0.000   0.200   0.000    0.00
  12.800   16.94    0.12    1.04   0.000   0.200   0.000    0.00
  12.850   16.51    1.76    0.10   0.000   0.200   0.000    0.00
  12.900   16.11   -0.09   -0.50   0.000   0.200   0.000    0.00
  12.950   15.67    0.40    0.34   0.000   0.200   0.000    0.00
  13.000   16.62   -0.27    1.17   0.000   0.200   0.000    0.00
  13.050   17.55    2.14    0.85   0.000   0.200   0.000    0.00
  13.100   17.51   -0.14   -0.03   0.000   0.200   0.000    0.00
  13.150   17.54    0.96   -0.35   0.000   0.200   0.000    0.00
  13.200   18.01    1.33   -1.34   0.000   0.200   0.000    0.00
  13.250   17.37   -5.91   -1.62   0.000   0.200   0.000    0.00
  13.300   16.90  -10.87   -1.20   0.000   0.200   0.000    0.00
  13.350   16.98   -8.73   -1.12   0.000   0.200   0.000    0.00
  13.400   17.68   -4.51   -0.58   0.000   0.200   0.000    0.00
  13.450   18.32   -6.92   -0.11   0.000   0.200   0.000    0.00
  13.500   18.14   -8.48   -0.47   0.000   0.200   0.000    0.00
  13.550   16.67   -7.06   -0.74   0.000   0.200   0.000    0.00
  13.600   15.39   -5.65   -0.89   0.000   0.200   0.000    0.00
  13.650   15.85   -4.35   -1.30   0.000   0.200   0.000    0.00
  13.700   16.29  -12.30    0.41   0.000   0.200   0.000    0.00
  13.750   17.86  -10.30   -0.64   0.000   0.200   0.000    0.00
  13.800   17.48  -10.91   -2.07   0.000   0.200   0.000    0.00
  13.850   17.93   -9.59   -1.20   0.000   0.200   0.000    0.00
  13.900   18.43   -5.98   -0.88   0.000   0.200   0.000    0.00
  13.950   17.87   -7.09   -1.63   0.000   0.200   0.000    0.00
  14.000   18.13   -9.24   -2.02   0.000   0.200   0.000    0.00
  14.050   17.70   -3.77   -1.09   0.000   0.200   0.000    0.00
  14.100   17.64   -4.97   -1.01   0.000   0.200   0.000    0.00
  14.150   17.10   -8.09   -1.56   0.000   0.200   0.000    0.00
  14.200   17.88  -10.13   -0.24   0.000   0.200   0.000    0.00
  14.250   17.96   -9.64   -0.11   0.000   0.200   0.000    0.00
  14.300   18.47   -9.48   -0.74   0.000   0.200   0.000    0.00
  14.350   17.61  -11.23   -1.10   0.000   0.200   0.000    0.00
  14.400   17.88   -8.37   -1.19   0.000   0.200   0.000    0.00
  14.450   17.81  -11.80    0.64   0.000   0.200   0.000    0.00
  14.500   18.15  -18.42    1.01   0.000   0.200   0.000    0.00
  14.550   18.28  -18.09    1.04   0.000   0.200   0.000    0.00
  14.600   17.48  -18.91    0.88   0.000   0.200   0.000    0.00
  14.650   17.29  -19.84    1.49   0.000   0.200   0.000    0.00
  14.700   17.64  -21.36    1.97   0.000   0.200   0.000    0.00
  14.750   17.16  -21.52    2.17   0.000   0.200   0.000    0.00
  14.800   16.11  -18.64    2.19   0.000   0.200   0.000    0.00
  14.850   17.20  -15.41    2.77   0.000   0.200   0.000    0.00
  14.900   17.61  -16.94    2.40   0.000   0.200   0.000    0.00
  14.950   16.17  -15.94    1.89   0.000   0.200   0.000    0.00
  15.000   16.07  -17.25    1.88   0.000   0.200   0.000    0.00
  15.050   16.14  -19.70    2.54   0.000   0.200   0.000    0.00
  15.100   16.87  -23.74    1.94   0.000   0.200   0.000    0.00
  15.150   16.68  -24.07    2.79   0.000   0.200   0.000    0.00
  15.200   16.01  -24.43    1.97   0.000   0.200   0.000    0.00
  15.250   15.00  -19.46    2.84   0.000   0.200   0.000    0.00
  15.300   15.56  -18.71    2.61   0.000   0.200   0.000    0.00
  15.350   16.99  -16.79    1.36   0.000   0.200   0.000    0.00
  15.400   15.87  -16.61    1.72   0.000   0.200   0.000    0.00
  15.450   16.41  -16.66    1.87   0.000   0.200   0.000    0.00
  15.500   15.99  -14.05    1.25   0.000   0.200   0.000    0.00
  15.550   15.95  -12.97    0.00   0.000   0.200   0.000    0.00
  15.600   15.59  -11.36   -1.02   0.000   0.200   0.000    0.00
  15.650   15.25   -8.20    0.75   0.000   0.200   0.000    0.00
  15.700   15.57   -9.68    0.95   0.000   0.200   0.000    0.00
  15.750   16.24   -7.63    0.71   0.000   0.200   0.000    0.00
  15.800   16.01   -9.06    1.14   0.000   0.200   0.000    0.00
  15.850   15.33  -17.95   -0.10   0.000   0.200   0.000    0.00
  15.900   14.49  -20.52   -0.27   0.000   0.200   0.000    0.00
  15.950   16.11  -21.96   -0.46   0.000   0.200   0.000    0.00
  16.000   16.59  -19.36   -0.16   0.000   0.200   0.000    0.00
  16.050   16.47  -23.24    0.17   0.000   0.200   0.000    0.00
  16.100   15.61  -26.50    0.31   0.000   0.200   0.000    0.00
  16.150   16.28  -23.60    0.39   0.000   0.200   0.000    0.00
  16.200   16.94  -20.69    0.26   0.000   0.200   0.000    0.00
  16.250   17.07  -19.65    0.86   0.000   0.200   0.000    0.00
  16.300   16.31  -19.02    0.76   0.000   0.200   0.000    0.00
  16.350   15.90  -23.57   -0.26   0.000   0.200   0.000    0.00
  16.400   16.64  -22.52    1.06   0.000   0.200   0.000    0.00
  16.450   16.70  -18.72    0.38   0.000   0.200   0.000    0.00
  16.500   16.12  -20.16    0.00   0.000   0.200   0.000    0.00
  16.550   16.71  -19.06    0.26   0.000   0.200   0.000    0.00
  16.600   16.80  -21.72   -0.10   0.000   0.200   0.000    0.00
  16.650   16.83  -26.95   -0.28   0.000   0.200   0.000    0.00
  16.700   17.73  -26.50   -0.63   0.000   0.200   0.000    0.00
  16.750   19.49  -25.78   -0.60   0.000   0.200   0.000    0.00
  16.800   18.48  -27.31   -1.48   0.000   0.200   0.000    0.00
  16.850   17.37  -24.42   -1.17   0.000   0.200   0.000    0.00
  16.900   16.87  -17.95   -1.01   0.000   0.200   0.000    0.00
  16.950   16.56  -19.77   -0.53   0.000   0.200   0.000    0.00
  17.000   16.59  -19.83   -1.06   0.000   0.200   0.000    0.00
  17.050   17.13  -16.51   -2.49   0.000   0.200   0.000    0.00
  17.100   16.86  -16.04   -2.01   0.000   0.200   0.000    0.00
  17.150   17.37  -18.25   -1.72   0.000   0.200   0.000    0.00
  17.200   18.09  -21.17   -0.90   0.000   0.200   0.000    0.00
  17.250   18.24  -23.52   -1.07   0.000   0.200   0.000    0.00
  17.300   18.87  -21.30   -1.17   0.000   0.200   0.000    0.00
  17.350   17.83  -24.31   -0.78   0.000   0.200   0.000    0.00
  17.400   17.16  -25.63   -0.76   0.000   0.200   0.000    0.00
  17.450   16.68  -23.32   -0.45   0.000   0.200   0.000    0.00
  17.500   15.51  -19.94   -0.02   0.000   0.200   0.000    0.00
  17.550   16.35  -19.20    0.38   0.000   0.200   0.000    0.00
  17.600   16.66  -16.68   -0.01   0.000   0.200   0.000    0.00
  17.650   16.78  -17.56    1.02   0.000   0.200   0.000    0.00
  17.700   15.92  -20.46    1.54   0.000   0.200   0.000    0.00
  17.750   15.89  -15.08    1.38   0.000   0.200   0.000    0.00
  17.800   16.42  -13.35    2.12   0.000   0.200   0.000    0.00
  17.850   17.21  -15.78    1.80   0.000   0.200   0.000    0.00
  17.900   16.76  -16.55    2.65   0.000   0.200   0.000    0.00
  17.950   17.88  -17.77    3.33   0.000   0.200   0.000    0.00
  18.000   18.96  -19.55    2.01   0.000   0.200   0.000    0.00
  18.050   19.46  -18.89    0.80   0.000   0.200   0.000    0.00
  18.100   19.66  -14.74    0.89   0.000   0.200   0.000    0.00
  18.150   20.29  -18.34    0.46   0.000   0.200   0.000    0.00
  18.200   21.10  -18.26   -1.27   0.000   0.200   0.000    0.00
  18.250   20.65  -16.82   -0.83   0.000   0.200   0.000    0.00
  18.300   19.92  -18.52   -0.75   0.000   0.200   0.000    0.00
  18.350   19.00  -18.84   -1.07   0.000   0.200   0.000    0.00
  18.400   18.99  -18.17   -0.76   0.000   0.200   0.000    0.00
  18.450   19.83  -17.47   -0.73   0.000   0.200   0.000    0.00
  18.500   19.52  -17.09   -0.48   0.000   0.200   0.000    0.00
  18.550   20.22  -15.45   -1.25   0.000   0.200   0.000    0.00
  18.600   19.66  -15.40    0.06   0.000   0.200   0.000    0.00
  18.650   21.03  -13.82    0.29   0.000   0.200   0.000    0.00
  18.700   21.38  -18.47    0.43   0.000   0.200   0.000    0.00
  18.750   21.11  -20.83    0.64   0.000   0.200   0.000    0.00
  18.800   21.97  -21.03    0.48   0.000   0.200   0.000    0.00
  18.850   21.04  -16.13   -0.15   0.000   0.200   0.000    0.00
  18.900   20.28  -15.47   -1.00   0.000   0.200   0.000    0.00
  18.950   20.28  -18.66   -0.06   0.000   0.200   0.000    0.00
  19.000   19.48  -17.83    0.47   0.000   0.200   0.000    0.00
  19.050   20.15  -17.09    0.40   0.000   0.200   0.000    0.00
  19.100   20.19  -17.86   -0.13   0.000   0.200   0.000    0.00
  19.150   20.40  -18.60   -0.50   0.000   0.200   0.000    0.00
  19.200   20.56  -19.70   -0.30   0.000   0.200   0.000    0.00
  19.250   20.83  -16.37    0.21   0.000   0.200   0.000    0.00
  19.300   21.43  -20.42   -0.31   0.000   0.200   0.000    0.00
  19.350   20.20  -22.57    0.06   0.000   0.200   0.000    0.00
  19.400   21.10  -20.53   -0.31   0.000   0.200   0.000    0.00
  19.450   20.74  -21.43   -0.96   0.000   0.200   0.000    0.00
  19.500   20.59  -23.37   -1.32   0.000   0.200   0.000    0.00
  19.550   18.90  -23.59   -2.39   0.000   0.200   0.000    0.00
  19.600   18.46  -20.39   -1.59   0.000   0.200   0.000    0.00
  19.650   18.46  -18.12   -3.25   0.000   0.200   0.000    0.00
  19.700   18.84  -16.37   -3.12   0.000   0.200   0.000    0.00
  19.750   19.22  -17.11   -3.10   0.000   0.200   0.000    0.00
  19.800   19.16  -18.54   -2.11   0.000   0.200   0.000    0.00
  19.850   19.19  -16.99   -0.46   0.000   0.200   0.000    0.00
  19.900   19.36  -16.24   -0.70   0.000   0.200   0.000    0.00
  19.950   20.09  -16.97   -0.72   0.000   0.200   0.000    0.00
  20.000   20.03  -17.44    0.38   0.000   0.200   0.000    0.00
  20.050   19.92  -16.59    0.02   0.000   0.200   0.000    0.00
  20.100   20.07  -17.19   -0.80   0.000   0.200   0.000    0.00
  20.150   19.31  -16.74   -1.94   0.000   0.200   0.000    0.00
  20.200   18.95  -17.96   -0.71   0.000   0.200   0.000    0.00
  20.250   18.89  -15.43   -0.15   0.000   0.200   0.000    0.00
  20.300   18.59  -13.53   -0.50   0.000   0.200   0.000    0.00
  20.350   19.37  -14.59   -0.28   0.000   0.200   0.000    0.00
  20.400   19.18  -10.79   -1.07   0.000   0.200   0.000    0.00
  20.450   18.79  -15.18   -1.59   0.000   0.200   0.000    0.00
  20.500   17.95  -20.23   -1.18   0.000   0.200   0.000    0.00
  20.550   17.06  -18.44   -0.68   0.000   0.200   0.000    0.00
  20.600   17.08  -16.46    0.01   0.000   0.200   0.000    0.00
  20.650   16.43  -11.43   -0.02   0.000   0.200   0.000    0.00
  20.700   16.34   -9.41   -0.36   0.000   0.200   0.000    0.00
  20.750   17.75  -14.70   -0.32   0.000   0.200   0.000    0.00
  20.800   17.70  -14.21    0.59   0.000   0.200   0.000    0.00
  20.850   17.31  -16.71   -0.02   0.000   0.200   0.000    0.00
  20.900   18.08  -14.93   -0.10   0.000   0.200   0.000    0.00
  20.950   19.40  -11.58   -0.02   0.000   0.200   0.000    0.00
  21.000   18.47  -10.50   -0.71   0.000   0.200   0.000    0.00
  21.050   19.15   -9.88   -0.60   0.000   0.200   0.000    0.00
  21.100   18.49   -8.86   -1.11   0.000   0.200   0.000    0.00
  21.150   19.16  -12.65   -1.55   0.000   0.200   0.000    0.00
  21.200   18.77  -14.85   -1.27   0.000   0.200   0.000    0.00
  21.250   18.68  -12.59   -1.11   0.000   0.200   0.000    0.00
  21.300   19.28  -11.00   -2.60   0.000   0.200   0.000    0.00
  21.350   19.63   -6.47   -3.81   0.000   0.200   0.000    0.00
  21.400   20.43   -6.01   -3.63   0.000   0.200   0.000    0.00
  21.450   20.61   -9.45   -2.27   0.000   0.200   0.000    0.00
  21.500   19.61  -10.14   -2.72   0.000   0.200   0.000    0.00
  21.550   19.66  -10.31   -2.60   0.000   0.200   0.000    0.00
  21.600   19.82   -7.96   -2.16   0.000   0.200   0.000    0.00
  21.650   20.35   -6.58   -3.44   0.000   0.200   0.000    0.00
  21.700   19.46   -5.65   -3.25   0.000   0.200   0.000    0.00
  21.750   19.45   -5.64   -1.92   0.000   0.200   0.000    0.00
  21.800   18.30   -7.47   -1.42   0.000   0.200   0.000    0.00
  21.850   18.19   -4.95   -1.29   0.000   0.200   0.000    0.00
  21.900   18.54   -4.25   -1.34   0.000   0.200   0.000    0.00
  21.950   18.69   -2.85   -2.08   0.000   0.200   0.000    0.00
  22.000   18.83   -3.16   -0.94   0.000   0.200   0.000    0.00
  22.050   19.80   -3.90   -0.75   0.000   0.200   0.000    0.00
  22.100   19.82   -3.37   -1.92   0.000   0.200   0.000    0.00
  22.150   20.75   -6.39   -1.95   0.000   0.200   0.000    0.00
  22.200   21.34   -6.67   -1.98   0.000   0.200   0.000    0.00
  22.250   21.09   -7.48   -1.31   0.000   0.200   0.000    0.00
  22.300   20.79  -10.59   -1.69   0.000   0.200   0.000    0.00
  22.350   20.89   -9.79   -1.77   0.000   0.200   0.000    0.00