! This hub-height wind-speed file was generated by TurbSim (v1.06.00, 21-Sep-2012) on 16-Jun-2018 at 18:31:33.
!
! The requested statistics for this data were:
!    Mean Total Wind Speed =    9.000 m/s
!    Turbulence Intensity  =   32.007%
!
!   Time  HorSpd  WndDir  VerSpd  HorShr  VerShr  LnVShr  GstSpd
!  (sec)   (m/s)   (deg)   (m/s)     (-)     (-)     (-)   (m/s)
   0.000   10.67   -7.51   -1.57   0.000   0.200   0.000    0.00
   0.050   10.98   -7.53   -1.34   0.000   0.200   0.000    0.00
   0.100   11.06  -10.66   -0.93   0.000   0.200   0.000    0.00
   0.150   10.24  -10.50   -1.13   0.000   0.200   0.000    0.00
   0.200   10.27   -7.70   -1.35   0.000   0.200   0.000    0.00
   0.250   10.35   -8.33   -2.04   0.000   0.200   0.000    0.00
   0.300    9.99   -9.22   -2.42   0.000   0.200   0.000    0.00
   0.350    9.88   -7.17   -2.53   0.000   0.200   0.000    0.00
   0.400    9.79   -7.81   -1.81   0.000   0.200   0.000    0.00
   0.450    9.53   -7.17   -1.53   0.000   0.200   0.000    0.00
   0.500    9.37   -9.95   -1.96   0.000   0.200   0.000    0.00
   0.550    9.17   -8.18   -2.43   0.000   0.200   0.000    0.00
   0.600    9.20  -13.31   -1.20   0.000   0.200   0.000    0.00
   0.650    9.86   -6.82   -1.02   0.000   0.200   0.000    0.00
   0.700    9.44   -9.67   -0.82   0.000   0.200   0.000    0.00
   0.750    9.26  -10.48   -0.57   0.000   0.200   0.000    0.00
   0.800    8.41  -12.72   -1.14   0.000   0.200   0.000    0.00
   0.850    7.67   -7.11   -1.20   0.000   0.200   0.000    0.00
   0.900    7.81   -6.41   -0.33   0.000   0.200   0.000    0.00
   0.950    8.38   -6.49   -0.62   0.000   0.200   0.000    0.00
   1.000    8.45   -1.69   -0.98   0.000   0.200   0.000    0.00
   1.050    8.34   -4.46   -0.98   0.000   0.200   0.000    0.00
   1.100    8.58   -3.23   -1.18   0.000   0.200   0.000    0.00
   1.150    8.50   -2.40   -1.79   0.000   0.200   0.000    0.00
   1.200    8.04   -3.98   -2.02   0.000   0.200   0.000    0.00
   1.250    8.57   -2.61   -2.66   0.000   0.200   0.000    0.00
   1.300    8.97   -1.88   -2.42   0.000   0.200   0.000    0.00
   1.350    8.61   -0.81   -2.97   0.000   0.200   0.000    0.00
   1.400    8.87    2.37   -3.15   0.000   0.200   0.000    0.00
   1.450    9.36   -1.57   -3.54   0.000   0.200   0.000    0.00
   1.500    9.79   -4.47   -3.45   0.000   0.200   0.000    0.00
   1.550    9.95   -1.39   -2.78   0.000   0.200   0.000    0.00
   1.600    9.88   -1.24   -2.34   0.000   0.200   0.000    0.00
   1.650    9.42   -1.13   -2.23   0.000   0.200   0.000    0.00
   1.700    8.98   -2.50   -2.57   0.000   0.200   0.000    0.00
   1.750    9.48   -5.15   -2.61   0.000   0.200   0.000    0.00
   1.800    9.86   -8.13   -2.45   0.000   0.200   0.000    0.00
   1.850    9.23   -6.71   -2.62   0.000   0.200   0.000    0.00
   1.900    9.57   -7.69   -2.46   0.000   0.200   0.000    0.00
   1.950    9.57   -5.79   -1.36   0.000   0.200   0.000    0.00
   2.000    9.47  -10.48   -0.51   0.000   0.200   0.000    0.00
   2.050    9.79  -17.45   -1.37   0.000   0.200   0.000    0.00
   2.100   10.46  -15.91   -1.13   0.000   0.200   0.000    0.00
   2.150   10.06  -16.13   -1.17   0.000   0.200   0.000    0.00
   2.200   10.24  -17.59   -1.09   0.000   0.200   0.000    0.00
   2.250    9.83  -12.20   -1.40   0.000   0.200   0.000    0.00
   2.300    9.96  -16.57   -1.03   0.000   0.200   0.000    0.00
   2.350    9.12  -10.97   -1.01   0.000   0.200   0.000    0.00
   2.400    8.52  -12.89   -1.50   0.000   0.200   0.000    0.00
   2.450    8.68  -14.83   -0.76   0.000   0.200   0.000    0.00
   2.500    8.78   -9.69   -0.02   0.000   0.200   0.000    0.00
   2.550    8.66   -7.54   -0.40   0.000   0.200   0.000    0.00
   2.600    8.50   -6.97   -0.02   0.000   0.200   0.000    0.00
   2.650    8.15   -8.66   -0.08   0.000   0.200   0.000    0.00
   2.700    7.62  -11.61    0.26   0.000   0.200   0.000    0.00
   2.750    7.35  -15.69    0.42   0.000   0.200   0.000    0.00
   2.800    7.96  -16.57    0.60   0.000   0.200   0.000    0.00
   2.850    8.90  -15.22    0.52   0.000   0.200   0.000    0.00
   2.900    8.26  -17.20    0.66   0.000   0.200   0.000    0.00
   2.950    8.46  -19.52    1.16   0.000   0.200   0.000    0.00
   3.000    9.06  -21.80    0.71   0.000   0.200   0.000    0.00
   3.050    9.50  -16.29    1.06   0.000   0.200   0.000    0.00
   3.100    9.66  -16.07    1.13   0.000   0.200   0.000    0.00
   3.150    9.56  -14.68    1.67   0.000   0.200   0.000    0.00
   3.200    9.14  -18.73    1.92   0.000   0.200   0.000    0.00
   3.250    9.07  -16.85    1.58   0.000   0.200   0.000    0.00
   3.300    8.61  -17.67    1.36   0.000   0.200   0.000    0.00
   3.350    8.79  -15.24    0.97   0.000   0.200   0.000    0.00
   3.400    8.72  -12.38    0.21   0.000   0.200   0.000    0.00
   3.450    8.46  -10.64    0.59   0.000   0.200   0.000    0.00
   3.500    8.98   -7.14   -0.16   0.000   0.200   0.000    0.00
   3.550    9.16   -2.45    0.29   0.000   0.200   0.000    0.00
   3.600    9.06    1.43    0.55   0.000   0.200   0.000    0.00
   3.650    9.17   -3.47    0.29   0.000   0.200   0.000    0.00
   3.700    9.24   -2.19    0.13   0.000   0.200   0.000    0.00
   3.750    9.30   -8.04   -0.19   0.000   0.200   0.000    0.00
   3.800    9.20   -2.43   -0.06   0.000   0.200   0.000    0.00
   3.850    9.75   -0.58   -0.04   0.000   0.200   0.000    0.00
   3.900    9.91   -0.45    0.17   0.000   0.200   0.000    0.00
   3.950    9.23   -0.40    0.25   0.000   0.200   0.000    0.00
   4.000    8.90   -0.10    0.09   0.000   0.200   0.000    0.00
   4.050    9.07    0.16   -0.03   0.000   0.200   0.000    0.00
   4.100    8.89    0.37   -0.16   0.000   0.200   0.000    0.00
   4.150    9.12   -4.59    0.67   0.000   0.200   0.000    0.00
   4.200    9.54   -3.96    0.28   0.000   0.200   0.000    0.00
   4.250   10.21   -2.97    0.87   0.000   0.200   0.000    0.00
   4.300    9.65   -0.03    0.78   0.000   0.200   0.000    0.00
   4.350    9.24    1.35    0.29   0.000   0.200   0.000    0.00
   4.400    9.87    0.59   -0.05   0.000   0.200   0.000    0.00
   4.450    9.69    1.32   -0.36   0.000   0.200   0.000    0.00
   4.500    9.59    6.08    0.15   0.000   0.200   0.000    0.00
   4.550    9.86    4.21   -0.12   0.000   0.200   0.000    0.00
   4.600    9.95    6.70   -0.15   0.000   0.200   0.000    0.00
   4.650    9.46    5.40    0.49   0.000   0.200   0.000    0.00
   4.700    9.50   -1.36    0.83   0.000   0.200   0.000    0.00
   4.750    9.37   -3.59    0.55   0.000   0.200   0.000    0.00
   4.800    8.96    2.88    2.13   0.000   0.200   0.000    0.00
   4.850    9.26    2.62    1.53   0.000   0.200   0.000    0.00
   4.900    8.87    1.65    1.94   0.000   0.200   0.000    0.00
   4.950    8.52    0.52    2.08   0.000   0.200   0.000    0.00
   5.000    8.74   -0.20    1.57   0.000   0.200   0.000    0.00
   5.050    9.15    1.96    1.42   0.000   0.200   0.000    0.00
   5.100    9.29    5.40    1.35   0.000   0.200   0.000    0.00
   5.150    9.67   11.22    1.14   0.000   0.200   0.000    0.00
   5.200    9.89   12.68    0.99   0.000   0.200   0.000    0.00
   5.250    9.85   17.60    1.31   0.000   0.200   0.000    0.00
   5.300   10.30   19.15    1.68   0.000   0.200   0.000    0.00
   5.350   10.09   18.11    1.79   0.000   0.200   0.000    0.00
   5.400    9.99   17.03    2.20   0.000   0.200   0.000    0.00
   5.450    8.94   12.64    2.65   0.000   0.200   0.000    0.00
   5.500    8.62    8.00    1.38   0.000   0.200   0.000    0.00
   5.550    8.96   10.56    0.76   0.000   0.200   0.000    0.00
   5.600    8.69   11.63    1.11   0.000   0.200   0.000    0.00
   5.650    8.60    8.59    2.65   0.000   0.200   0.000    0.00
   5.700    8.84    9.37    2.05   0.000   0.200   0.000    0.00
   5.750    9.08    3.73    1.57   0.000   0.200   0.000    0.00
   5.800    8.81    7.50    2.26   0.000   0.200   0.000    0.00
   5.850    9.19   11.39    2.34   0.000   0.200   0.000    0.00
   5.900    9.42   11.78    1.61   0.000   0.200   0.000    0.00
   5.950    9.61   11.38    2.50   0.000   0.200   0.000    0.00
   6.000    9.91    7.14    2.17   0.000   0.200   0.000    0.00
   6.050    9.76    3.80    2.96   0.000   0.200   0.000    0.00
   6.100   10.02    6.76    3.15   0.000   0.200   0.000    0.00
   6.150   10.87    5.97    2.92   0.000   0.200   0.000    0.00
   6.200   11.10    8.45    2.33   0.000   0.200   0.000    0.00
   6.250   11.93    9.58    1.32   0.000   0.200   0.000    0.00
   6.300   11.80    8.81    1.19   0.000   0.200   0.000    0.00
   6.350   11.97   10.33    1.44   0.000   0.200   0.000    0.00
   6.400   11.65    6.30    1.83   0.000   0.200   0.000    0.00
   6.450   11.69    5.77    1.84   0.000   0.200   0.000    0.00
   6.500   11.91    7.16    1.68   0.000   0.200   0.000    0.00
   6.550   11.44    1.78    1.38   0.000   0.200   0.000    0.00
   6.600   11.11    2.24    1.47   0.000   0.200   0.000    0.00
   6.650   10.98    3.11    1.52   0.000   0.200   0.000    0.00
   6.700   10.45    1.65    0.93   0.000   0.200   0.000    0.00
   6.750   10.85    2.05    1.62   0.000   0.200   0.000    0.00
   6.800   10.82    3.63    1.27   0.000   0.200   0.000    0.00
   6.850   10.99    1.78    1.33   0.000   0.200   0.000    0.00
   6.900   10.97    4.21    1.92   0.000   0.200   0.000    0.00
   6.950   10.60    3.69    1.08   0.000   0.200   0.000    0.00
   7.000   10.92   -0.33    1.77   0.000   0.200   0.000    0.00
   7.050   11.62    1.55    1.29   0.000   0.200   0.000    0.00
   7.100   11.98    3.33    2.07   0.000   0.200   0.000    0.00
   7.150   11.70    3.68    2.32   0.000   0.200   0.000    0.00
   7.200   10.99    4.88    1.93   0.000   0.200   0.000    0.00
   7.250   10.97    9.82    1.69   0.000   0.200   0.000    0.00
   7.300   11.32    3.73    0.97   0.000   0.200   0.000    0.00
   7.350   11.73    3.72    0.65   0.000   0.200   0.000    0.00
   7.400   11.12    8.29    0.77   0.000   0.200   0.000    0.00
   7.450   11.45   14.77   -0.26   0.000   0.200   0.000    0.00
   7.500   11.73   16.02    0.65   0.000   0.200   0.000    0.00
   7.550   11.90   16.56    0.68   0.000   0.200   0.000    0.00
   7.600   11.93   14.77    0.89   0.000   0.200   0.000    0.00
   7.650   11.75   12.49    0.74   0.000   0.200   0.000    0.00
   7.700   11.67   15.23    0.00   0.000   0.200   0.000    0.00
   7.750   12.64   15.85   -0.19   0.000   0.200   0.000    0.00
   7.800   13.03   11.32   -0.30   0.000   0.200   0.000    0.00
   7.850   13.92   12.96   -0.95   0.000   0.200   0.000    0.00
   7.900   13.76   11.67   -1.13   0.000   0.200   0.000    0.00
   7.950   13.72   16.48   -0.54   0.000   0.200   0.000    0.00
   8.000   13.07   18.63   -0.28   0.000   0.200   0.000    0.00
   8.050   12.78   17.38   -0.71   0.000   0.200   0.000    0.00
   8.100   12.37   18.20   -0.73   0.000   0.200   0.000    0.00
   8.150   12.87   17.81   -0.81   0.000   0.200   0.000    0.00
   8.200   13.18   18.83   -0.61   0.000   0.200   0.000    0.00
   8.250   12.94   17.61   -0.62   0.000   0.200   0.000    0.00
   8.300   13.34   12.67   -1.03   0.000   0.200   0.000    0.00
   8.350   13.69   10.51   -1.15   0.000   0.200   0.000    0.00
   8.400   13.90   15.15   -1.91   0.000   0.200   0.000    0.00
   8.450   14.20   15.51   -2.24   0.000   0.200   0.000    0.00
   8.500   14.03   20.41   -2.28   0.000   0.200   0.000    0.00
   8.550   13.83   20.75   -2.70   0.000   0.200   0.000    0.00
   8.600   13.99   20.27   -2.42   0.000   0.200   0.000    0.00
   8.650   13.94   21.66   -2.40   0.000   0.200   0.000    0.00
   8.700   14.55   20.55   -2.04   0.000   0.200   0.000    0.00
   8.750   14.23   18.94   -2.16   0.000   0.200   0.000    0.00
   8.800   14.12   19.40   -1.50   0.000   0.200   0.000    0.00
   8.850   14.39   15.38   -0.87   0.000   0.200   0.000    0.00
   8.900   13.42   13.24   -0.59   0.000   0.200   0.000    0.00
   8.950   13.67   15.79    0.16   0.000   0.200   0.000    0.00
   9.000   14.06   16.03    0.27   0.000   0.200   0.000    0.00
   9.050   14.21   17.94    0.09   0.000   0.200   0.000    0.00
   9.100   13.60   18.64   -1.05   0.000   0.200   0.000    0.00
   9.150   13.77   18.66   -0.84   0.000   0.200   0.000    0.00
   9.200   13.94   14.63   -0.83   0.000   0.200   0.000    0.00
   9.250   13.69   13.88   -1.12   0.000   0.200   0.000    0.00
   9.300   13.31   11.72   -1.43   0.000   0.200   0.000    0.00
   9.350   13.04    7.98   -0.70   0.000   0.200   0.000    0.00
   9.400   13.34    7.02   -0.73   0.000   0.200   0.000    0.00
   9.450   13.39    6.99   -0.13   0.000   0.200   0.000    0.00
   9.500   13.44    6.54   -0.09   0.000   0.200   0.000    0.00
   9.550   13.23    8.09    0.15   0.000   0.200   0.000    0.00
   9.600   13.31    8.83   -0.09   0.000   0.200   0.000    0.00
   9.650   14.37   11.06   -0.01   0.000   0.200   0.000    0.00
   9.700   14.16   10.48    0.18   0.000   0.200   0.000    0.00
   9.750   14.09   11.92   -0.68   0.000   0.200   0.000    0.00
   9.800   13.75   11.66   -1.49   0.000   0.200   0.000    0.00
   9.850   13.73   12.46   -1.11   0.000   0.200   0.000    0.00
   9.900   13.93   12.97   -1.21   0.000   0.200   0.000    0.00
   9.950   13.17   15.09   -1.45   0.000   0.200   0.000    0.00
  10.000   13.47   13.33   -1.76   0.000   0.200   0.000    0.00
  10.050   12.78   11.76   -1.94   0.000   0.200   0.000    0.00
  10.100   13.72   13.29   -1.37   0.000   0.200   0.000    0.00
  10.150   13.34   12.56   -0.62   0.000   0.200   0.000    0.00
  10.200   12.50    8.45   -0.22   0.000   0.200   0.000    0.00
  10.250   12.59    5.55   -0.07   0.000   0.200   0.000    0.00
  10.300   12.77    8.24   -0.40   0.000   0.200   0.000    0.00
  10.350   12.62   12.13   -0.61   0.000   0.200   0.000    0.00
  10.400   13.32   10.79   -0.08   0.000   0.200   0.000    0.00
  10.450   13.62   13.96    0.39   0.000   0.200   0.000    0.00
  10.500   15.53   15.07    0.69   0.000   0.200   0.000    0.00
  10.550   15.43   13.24    0.77   0.000   0.200   0.000    0.00
  10.600   14.68    9.82    0.47   0.000   0.200   0.000    0.00
  10.650   14.05    9.77    0.79   0.000   0.200   0.000    0.00
  10.700   13.84   12.09    0.76   0.000   0.200   0.000    0.00
  10.750   14.07   14.52    0.12   0.000   0.200   0.000    0.00
  10.800   14.08   14.53    0.48   0.000   0.200   0.000    0.00
  10.850   14.31   14.55    0.82   0.000   0.200   0.000    0.00
  10.900   14.73   12.39    0.53   0.000   0.200   0.000    0.00
  10.950   15.14   11.64    0.13   0.000   0.200   0.000    0.00
  11.000   14.71   13.55   -0.06   0.000   0.200   0.000    0.00
  11.050   14.76   11.77   -0.77   0.000   0.200   0.000    0.00
  11.100   15.14    9.93   -0.19   0.000   0.200   0.000    0.00
  11.150   15.34    9.20   -0.44   0.000   0.200   0.000    0.00
  11.200   15.38   12.00   -0.70   0.000   0.200   0.000    0.00
  11.250   15.66   10.17   -0.53   0.000   0.200   0.000    0.00
  11.300   15.72   11.85    0.06   0.000   0.200   0.000    0.00
  11.350   16.23   10.29   -0.22   0.000   0.200   0.000    0.00
  11.400   15.85   11.14    0.37   0.000   0.200   0.000    0.00
  11.450   15.01   12.91    0.07   0.000   0.200   0.000    0.00
  11.500   14.76   10.06    0.21   0.000   0.200   0.000    0.00
  11.550   14.40   12.35    0.26   0.000   0.200   0.000    0.00
  11.600   13.93   10.89   -0.19   0.000   0.200   0.000    0.00
  11.650   13.77   13.16   -0.32   0.000   0.200   0.000    0.00
  11.700   13.67   15.59   -0.15   0.000   0.200   0.000    0.00
  11.750   13.50   16.68   -0.50   0.000   0.200   0.000    0.00
  11.800   12.92   13.48   -1.32   0.000   0.200   0.000    0.00
  11.850   12.69    9.68   -1.33   0.000   0.200   0.000    0.00
  11.900   13.28    7.23   -1.38   0.000   0.200   0.000    0.00
  11.950   13.58   10.28   -0.62   0.000   0.200   0.000    0.00
  12.000   13.50   12.29    0.03   0.000   0.200   0.000    0.00
  12.050   12.91    9.90   -1.36   0.000   0.200   0.000    0.00
  12.100   12.61   13.05   -1.42   0.000   0.200   0.000    0.00
  12.150   12.04   13.44   -1.05   0.000   0.200   0.000    0.00
  12.200   11.59   15.23   -0.53   0.000   0.200   0.000    0.00
  12.250   11.41    9.41   -0.43   0.000   0.200   0.000    0.00
  12.300   11.38   10.77   -0.32   0.000   0.200   0.000    0.00
  12.350   11.88   12.98   -0.14   0.000   0.200   0.000    0.00
  12.400   12.12   10.21   -0.06   0.000   0.200   0.000    0.00
  12.450   12.43   10.14    0.34   0.000   0.200   0.000    0.00
  12.500   12.92    8.33   -0.49   0.000   0.200   0.000    0.00
  12.550   13.33    6.25   -0.42   0.000   0.200   0.000    0.00
  12.600   13.71    6.65   -0.73   0.000   0.200   0.000    0.00
  12.650   13.72    5.05   -0.43   0.000   0.200   0.000    0.00
  12.700   13.27    5.16   -0.66   0.000   0.200   0.000    0.00
  12.750   12.58    7.83   -0.24   0.000   0.200   0.000    0.00
  12.800   12.17   10.12   -0.85   0.000   0.200   0.000    0.00
  12.850   11.95   11.78   -0.44   0.000   0.200   0.000    0.00
  12.900   11.79   13.01   -0.26   0.000   0.200   0.000    0.00
  12.950   12.14   13.79   -0.15   0.000   0.200   0.000    0.00
  13.000   12.30   15.21   -0.27   0.000   0.200   0.000    0.00
  13.050   11.89   14.46   -0.47   0.000   0.200   0.000    0.00
  13.100   12.13   10.92   -0.35   0.000   0.200   0.000    0.00
  13.150   11.80    8.59   -0.08   0.000   0.200   0.000    0.00
  13.200   11.18   10.56    0.24   0.000   0.200   0.000    0.00
  13.250   11.26    8.05   -0.04   0.000   0.200   0.000    0.00
  13.300   11.43    8.82    0.35   0.000   0.200   0.000    0.00
  13.350   11.26    6.29    0.77   0.000   0.200   0.000    0.00
  13.400   11.02    4.83    1.04   0.000   0.200   0.000    0.00
  13.450   10.46    7.11    1.63   0.000   0.200   0.000    0.00
  13.500   10.71    4.48    0.84   0.000   0.200   0.000    0.00
  13.550   11.00    1.56    0.50   0.000   0.200   0.000    0.00
  13.600   10.14    2.72    1.41   0.000   0.200   0.000    0.00
  13.650   10.46    2.26    1.43   0.000   0.200   0.000    0.00
  13.700   10.41    0.12    1.24   0.000   0.200   0.000    0.00
  13.750   11.01    0.69    0.61   0.000   0.200   0.000    0.00
  13.800   10.98    2.36    0.19   0.000   0.200   0.000    0.00
  13.850   11.11    5.03    0.35   0.000   0.200   0.000    0.00
  13.900   11.13    2.64   -0.43   0.000   0.200   0.000    0.00
  13.950   11.16    3.18   -1.67   0.000   0.200   0.000    0.00
  14.000   11.47    3.73   -1.66   0.000   0.200   0.000    0.00
  14.050   11.96    2.64   -2.08   0.000   0.200   0.000    0.00
  14.100   12.92    0.19   -1.35   0.000   0.200   0.000    0.00
  14.150   12.86    5.74   -0.39   0.000   0.200   0.000    0.00
  14.200   12.49    5.49   -0.41   0.000   0.200   0.000    0.00
  14.250   12.02    6.63   -0.37   0.000   0.200   0.000    0.00
  14.300   11.70   10.27   -0.08   0.000   0.200   0.000    0.00
  14.350   11.44    6.17   -0.55   0.000   0.200   0.000    0.00
  14.400   11.11    5.48   -0.69   0.000   0.200   0.000    0.00
  14.450   10.56    4.35   -0.43   0.000   0.200   0.000    0.00
  14.500   11.02    6.99    0.26   0.000   0.200   0.000    0.00
  14.550   11.21    7.19   -0.28   0.000   0.200   0.000    0.00
  14.600   10.95    5.59   -0.02   0.000   0.200   0.000    0.00
  14.650   10.55    4.96   -0.41   0.000   0.200   0.000    0.00
  14.700   11.30    4.30   -0.20   0.000   0.200   0.000    0.00
  14.750   10.97    2.76    0.32   0.000   0.200   0.000    0.00
  14.800   11.42    1.34    0.20   0.000   0.200   0.000    0.00
  14.850   11.87    3.68   -0.09   0.000   0.200   0.000    0.00
  14.900   11.48   -1.09    0.23   0.000   0.200   0.000    0.00
  14.950   11.85    1.86    0.17   0.000   0.200   0.000    0.00
  15.000   11.83    3.36    0.21   0.000   0.200   0.000    0.00
  15.050   11.90    1.82   -0.95   0.000   0.200   0.000    0.00
  15.100   12.30    5.67   -1.30   0.000   0.200   0.000    0.00
  15.150   12.34    7.40   -1.33   0.000   0.200   0.000    0.00
  15.200   12.26    8.32   -1.56   0.000   0.200   0.000    0.00
  15.250   12.17    9.21   -2.17   0.000   0.200   0.000    0.00
  15.300   12.60    5.68   -1.51   0.000   0.200   0.000    0.00
  15.350   12.75    3.78   -0.88   0.000   0.200   0.000    0.00
  15.400   12.85    6.38    0.04   0.000   0.200   0.000    0.00
  15.450   13.22    7.92    0.17   0.000   0.200   0.000    0.00
  15.500   13.75    8.96    0.11   0.000   0.200   0.000    0.00
  15.550   13.78    7.32   -0.28   0.000   0.200   0.000    0.00
  15.600   14.17    5.25   -1.15   0.000   0.200   0.000    0.00
  15.650   14.49    2.29   -1.23   0.000   0.200   0.000    0.00
  15.700   12.93    4.03   -1.57   0.000   0.200   0.000    0.00
  15.750   12.55    3.63   -1.60   0.000   0.200   0.000    0.00
  15.800   12.33   -1.74   -2.14   0.000   0.200   0.000    0.00
  15.850   12.33   -1.83   -2.18   0.000   0.200   0.000    0.00
  15.900   12.53   -3.91   -1.74   0.000   0.200   0.000    0.00
  15.950   11.94   -4.18   -2.27   0.000   0.200   0.000    0.00
  16.000   11.67   -5.82   -2.20   0.000   0.200   0.000    0.00
  16.050   11.74   -1.75   -2.56   0.000   0.200   0.000    0.00
  16.100   11.75   -2.15   -3.23   0.000   0.200   0.000    0.00
  16.150   11.93   -2.04   -3.19   0.000   0.200   0.000    0.00
  16.200   12.77   -3.66   -2.29   0.000   0.200   0.000    0.00
  16.250   12.96   -4.24   -2.15   0.000   0.200   0.000    0.00
  16.300   12.50   -6.33   -2.73   0.000   0.200   0.000    0.00
  16.350   12.66   -3.68   -2.41   0.000   0.200   0.000    0.00
  16.400   12.93   -4.44   -2.26   0.000   0.200   0.000    0.00
  16.450   12.80   -5.06   -1.81   0.000   0.200   0.000    0.00
  16.500   13.46   -2.73   -0.64   0.000   0.200   0.000    0.00
  16.550   13.62   -7.40   -0.27   0.000   0.200   0.000    0.00
  16.600   13.77   -7.06   -0.71   0.000   0.200   0.000    0.00
  16.650   13.51   -6.21   -0.99   0.000   0.200   0.000    0.00
  16.700   13.72   -7.16   -1.03   0.000   0.200   0.000    0.00
  16.750   13.79   -9.09   -0.89   0.000   0.200   0.000    0.00
  16.800   13.59   -8.70   -0.48   0.000   0.200   0.000    0.00
  16.850   13.01  -10.20   -0.78   0.000   0.200   0.000    0.00
  16.900   11.98   -7.91   -0.01   0.000   0.200   0.000    0.00
  16.950   11.15   -9.02    0.43   0.000   0.200   0.000    0.00
  17.000   11.17   -7.37   -0.16   0.000   0.200   0.000    0.00
  17.050   10.25   -6.59   -0.30   0.000   0.200   0.000    0.00
  17.100   10.11   -8.68   -0.12   0.000   0.200   0.000    0.00
  17.150   10.13   -6.76    0.15   0.000   0.200   0.000    0.00
  17.200    9.54   -7.23    0.31   0.000   0.200   0.000    0.00
  17.250    9.15   -3.82   -0.42   0.000   0.200   0.000    0.00
  17.300    9.07   -2.19   -0.94   0.000   0.200   0.000    0.00
  17.350    9.76   -1.09   -1.15   0.000   0.200   0.000    0.00
  17.400   10.45   -0.22   -0.97   0.000   0.200   0.000    0.00
  17.450   10.09    2.75   -0.89   0.000   0.200   0.000    0.00
  17.500   10.22    1.49   -1.18   0.000   0.200   0.000    0.00
  17.550    9.90    9.13   -0.77   0.000   0.200   0.000    0.00
  17.600    9.66    9.17   -1.19   0.000   0.200   0.000    0.00
  17.650    9.92    3.99   -1.40   0.000   0.200   0.000    0.00
  17.700   10.03    5.78   -1.27   0.000   0.200   0.000    0.00
  17.750    9.65    5.58   -1.04   0.000   0.200   0.000    0.00
  17.800    9.77    4.45   -0.62   0.000   0.200   0.000    0.00
  17.850    9.76    5.49    0.13   0.000   0.200   0.000    0.00
  17.900    9.51    5.14   -0.16   0.000   0.200   0.000    0.00
  17.950    8.96   -0.67   -0.59   0.000   0.200   0.000    0.00
  18.000    8.90    1.81   -0.28   0.000   0.200   0.000    0.00
  18.050    9.74    3.53   -0.66   0.000   0.200   0.000    0.00
  18.100    9.53    0.08   -0.56   0.000   0.200   0.000    0.00
  18.150    8.95    0.37   -0.65   0.000   0.200   0.000    0.00
  18.200    8.84   -1.43   -0.97   0.000   0.200   0.000    0.00
  18.250    8.58    1.33   -0.94   0.000   0.200   0.000    0.00
  18.300    8.89   -3.08   -0.29   0.000   0.200   0.000    0.00
  18.350    9.49   -6.22   -0.03   0.000   0.200   0.000    0.00
  18.400   10.00   -6.31    0.76   0.000   0.200   0.000    0.00
  18.450   10.58   -5.82    0.68   0.000   0.200   0.000    0.00
  18.500   10.95   -3.34    0.11   0.000   0.200   0.000    0.00
  18.550   11.25    3.11    0.33   0.000   0.200   0.000    0.00
  18.600   10.79    6.29    0.25   0.000   0.200   0.000    0.00
  18.650   11.14    2.94    0.38   0.000   0.200   0.000    0.00
  18.700   10.68   -0.87    0.60   0.000   0.200   0.000    0.00
  18.750   10.64   -2.17    1.22   0.000   0.200   0.000    0.00
  18.800   11.15   -4.41    1.17   0.000   0.200   0.000    0.00
  18.850   11.45   -8.76    1.32   0.000   0.200   0.000    0.00
  18.900   10.95   -9.52    1.10   0.000   0.200   0.000    0.00
  18.950   11.78  -12.99    1.50   0.000   0.200   0.000    0.00
  19.000   11.83   -8.38    1.48   0.000   0.200   0.000    0.00
  19.050   12.83   -9.76    1.45   0.000   0.200   0.000    0.00
  19.100   12.57  -14.00    1.35   0.000   0.200   0.000    0.00
  19.150   11.96  -16.75    1.63   0.000   0.200   0.000    0.00
  19.200   11.96  -16.11    2.18   0.000   0.200   0.000    0.00
  19.250   11.24  -16.73    1.95   0.000   0.200   0.000    0.00
  19.300   11.56  -19.14    2.18   0.000   0.200   0.000    0.00
  19.350   11.18  -18.29    2.17   0.000   0.200   0.000    0.00
  19.400   11.35  -14.02    1.59   0.000   0.200   0.000    0.00
  19.450   11.21  -11.40    1.43   0.000   0.200   0.000    0.00
  19.500   10.99  -12.15    0.71   0.000   0.200   0.000    0.00
  19.550   10.77  -11.97    0.37   0.000   0.200   0.000    0.00
  19.600   10.33  -11.84    0.29   0.000   0.200   0.000    0.00
  19.650   11.07  -11.70    0.84   0.000   0.200   0.000    0.00
  19.700   10.98  -11.56    1.26   0.000   0.200   0.000    0.00
  19.750   11.32   -9.94    1.91   0.000   0.200   0.000    0.00
  19.800   11.50   -9.98    1.58   0.000   0.200   0.000    0.00
  19.850   11.38  -15.28    1.90   0.000   0.200   0.000    0.00
  19.900   11.04  -13.83    2.53   0.000   0.200   0.000    0.00
  19.950   11.29   -9.86    1.71   0.000   0.200   0.000    0.00
  20.000   10.85   -9.14    0.71   0.000   0.200   0.000    0.00
  20.050   10.70   -8.00    0.24   0.000   0.200   0.000    0.00
  20.100   10.09   -8.29    0.16   0.000   0.200   0.000    0.00
  20.150   10.01   -3.15    0.43   0.000   0.200   0.000    0.00
  20.200   10.00    0.66    0.14   0.000   0.200   0.000    0.00
  20.250    9.40    3.79    0.71   0.000   0.200   0.000    0.00
  20.300    8.99    6.48    0.40   0.000   0.200   0.000    0.00
  20.350    8.87    3.41    0.71   0.000   0.200   0.000    0.00
  20.400    9.32    3.51    1.00   0.000   0.200   0.000    0.00
  20.450    9.13    2.93    0.68   0.000   0.200   0.000    0.00
  20.500    9.25    3.08    1.09   0.000   0.200   0.000    0.00
  20.550    8.83    2.38    1.62   0.000   0.200   0.000    0.00
  20.600    8.69    8.79    1.42   0.000   0.200   0.000    0.00
  20.650    8.29   10.13    0.97   0.000   0.200   0.000    0.00
  20.700    8.06    8.99    1.62   0.000   0.200   0.000    0.00
  20.750    8.82   10.93    1.81   0.000   0.200   0.000    0.00
  20.800    8.57    8.92    2.19   0.000   0.200   0.000    0.00
  20.850    8.88    7.59    2.03   0.000   0.200   0.000    0.00
  20.900    9.42    6.59    1.93   0.000   0.200   0.000    0.00
  20.950    8.88    3.70    1.57   0.000   0.200   0.000    0.00
  21.000    9.03    0.09    1.93   0.000   0.200   0.000    0.00
  21.050    8.94   -1.86    2.10   0.000   0.200   0.000    0.00
  21.100    9.89    1.30    2.16   0.000   0.200   0.000    0.00
  21.150    9.79   -1.12    2.85   0.000   0.200   0.000    0.00
  21.200   10.33    0.15    3.12   0.000   0.200   0.000    0.00
  21.250   10.74    2.48    3.24   0.000   0.200   0.000    0.00
  21.300   10.82    6.24    3.02   0.000   0.200   0.000    0.00
  21.350   10.29    9.55    2.80   0.000   0.200   0.000    0.00
  21.400   10.49   10.35    2.86   0.000   0.200   0.000    0.00
  21.450   10.31   11.52    2.55   0.000   0.200   0.000    0.00
  21.500    9.68   18.23    2.85   0.000   0.200   0.000    0.00
  21.550    9.90   19.73    2.64   0.000   0.200   0.000    0.00
  21.600   10.05   17.98    4.11   0.000   0.200   0.000    0.00
  21.650    9.66   17.09    3.73   0.000   0.200   0.000    0.00
  21.700    9.54   16.43    3.58   0.000   0.200   0.000    0.00
  21.750    8.75   11.55    3.32   0.000   0.200   0.000    0.00
  21.800    8.76    3.27    3.17   0.000   0.200   0.000    0.00
  21.850    8.67   -1.81    4.15   0.000   0.200   0.000    0.00
  21.900    9.00   -1.15    3.82   0.000   0.200   0.000    0.00
  21.950    9.17    1.92    4.07   0.000   0.200   0.000    0.00
  22.000    9.16    2.59    3.72   0.000   0.200   0.000    0.00
  22.050    9.49    3.64    2.69   0.000   0.200   0.000    0.00
  22.100    9.34    4.07    3.38   0.000   0.200   0.000    0.00
  22.150    9.20    6.48    3.63   0.000   0.200   0.000    0.00
  22.200    8.93    4.39    3.59   0.000   0.200   0.000    0.00
  22.250    9.23    2.16    3.63   0.000   0.200   0.000    0.00
  22.300    9.31    1.32    3.40   0.000   0.200   0.000    0.00
  22.350    8.82    1.75    3.06   0.000   0.200   0.000    0.00