! This hub-height wind-speed file was generated by TurbSim (v1.06.00, 21-Sep-2012) on 16-Jun-2018 at 18:32:02.
!
! The requested statistics for this data were:
!    Mean Total Wind Speed =   17.000 m/s
!    Turbulence Intensity  =   15.112%
!
!   Time  HorSpd  WndDir  VerSpd  HorShr  VerShr  LnVShr  GstSpd
!  (sec)   (m/s)   (deg)   (m/s)     (-)     (-)     (-)   (m/s)
   0.000   16.92    2.52   -2.31   0.000   0.200   0.000    0.00
   0.050   16.01    2.17   -2.24   0.000   0.200   0.000    0.00
   0.100   15.92    3.25   -1.97   0.000   0.200   0.000    0.00
   0.150   15.80    2.90   -1.98   0.000   0.200   0.000    0.00
   0.200   16.07    3.51   -1.52   0.000   0.200   0.000    0.00
   0.250   16.66    2.88   -1.13   0.000   0.200   0.000    0.00
   0.300   16.39    2.87   -1.88   0.000   0.200   0.000    0.00
   0.350   16.19    1.66   -1.95   0.000   0.200   0.000    0.00
   0.400   16.93    4.15   -1.14   0.000   0.200   0.000    0.00
   0.450   17.02    4.19   -0.69   0.000   0.200   0.000    0.00
   0.500   16.45    4.25   -1.13   0.000   0.200   0.000    0.00
   0.550   16.25    3.93   -1.69   0.000   0.200   0.000    0.00
   0.600   16.26    2.33   -1.61   0.000   0.200   0.000    0.00
   0.650   15.75    4.94   -1.98   0.000   0.200   0.000    0.00
   0.700   15.78    8.62   -1.86   0.000   0.200   0.000    0.00
   0.750   15.63    6.95   -1.41   0.000   0.200   0.000    0.00
   0.800   16.15    7.80   -0.79   0.000   0.200   0.000    0.00
   0.850   16.31    8.42   -1.45   0.000   0.200   0.000    0.00
   0.900   16.36    7.41   -1.56   0.000   0.200   0.000    0.00
   0.950   16.25    4.73   -1.45   0.000   0.200   0.000    0.00
   1.000   16.27    3.15   -1.91   0.000   0.200   0.000    0.00
   1.050   16.98    4.75   -1.47   0.000   0.200   0.000    0.00
   1.100   16.90    3.73   -1.77   0.000   0.200   0.000    0.00
   1.150   16.79    6.28   -1.48   0.000   0.200   0.000    0.00
   1.200   17.08    4.53   -1.62   0.000   0.200   0.000    0.00
   1.250   16.69    3.48   -2.32   0.000   0.200   0.000    0.00
   1.300   16.41    4.98   -2.10   0.000   0.200   0.000    0.00
   1.350   16.65    3.34   -2.19   0.000   0.200   0.000    0.00
   1.400   17.01    7.09   -2.13   0.000   0.200   0.000    0.00
   1.450   17.39    3.80   -1.71   0.000   0.200   0.000    0.00
   1.500   17.65    4.65   -2.24   0.000   0.200   0.000    0.00
   1.550   17.38    2.48   -1.96   0.000   0.200   0.000    0.00
   1.600   17.17    0.84   -1.76   0.000   0.200   0.000    0.00
   1.650   16.63    1.04   -2.28   0.000   0.200   0.000    0.00
   1.700   17.09    3.10   -2.49   0.000   0.200   0.000    0.00
   1.750   16.72    1.60   -2.31   0.000   0.200   0.000    0.00
   1.800   16.81   -0.04   -2.68   0.000   0.200   0.000    0.00
   1.850   16.41    2.13   -2.99   0.000   0.200   0.000    0.00
   1.900   16.55    2.03   -2.54   0.000   0.200   0.000    0.00
   1.950   16.61   -0.83   -2.04   0.000   0.200   0.000    0.00
   2.000   16.20   -2.32   -1.38   0.000   0.200   0.000    0.00
   2.050   16.05   -2.70   -2.02   0.000   0.200   0.000    0.00
   2.100   17.32   -1.69   -1.27   0.000   0.200   0.000    0.00
   2.150   17.00    1.49   -1.09   0.000   0.200   0.000    0.00
   2.200   16.14    4.57   -1.18   0.000   0.200   0.000    0.00
   2.250   15.67    2.84   -1.72   0.000   0.200   0.000    0.00
   2.300   16.02    6.28   -2.12   0.000   0.200   0.000    0.00
   2.350   15.72    8.20   -2.47   0.000   0.200   0.000    0.00
   2.400   15.39   11.05   -2.57   0.000   0.200   0.000    0.00
   2.450   15.83   13.95   -2.09   0.000   0.200   0.000    0.00
   2.500   15.17    9.75   -2.19   0.000   0.200   0.000    0.00
   2.550   14.66   10.54   -2.34   0.000   0.200   0.000    0.00
   2.600   15.84   12.33   -2.32   0.000   0.200   0.000    0.00
   2.650   15.97   11.10   -2.16   0.000   0.200   0.000    0.00
   2.700   15.71   10.03   -2.36   0.000   0.200   0.000    0.00
   2.750   15.11   10.40   -2.44   0.000   0.200   0.000    0.00
   2.800   14.61   10.18   -1.91   0.000   0.200   0.000    0.00
   2.850   15.17    4.98   -2.60   0.000   0.200   0.000    0.00
   2.900   15.87    4.58   -3.11   0.000   0.200   0.000    0.00
   2.950   16.06    5.25   -2.68   0.000   0.200   0.000    0.00
   3.000   16.26    6.39   -2.82   0.000   0.200   0.000    0.00
   3.050   16.80    8.12   -2.94   0.000   0.200   0.000    0.00
   3.100   15.93    9.75   -2.22   0.000   0.200   0.000    0.00
   3.150   15.43    8.27   -1.50   0.000   0.200   0.000    0.00
   3.200   15.40    8.94   -2.22   0.000   0.200   0.000    0.00
   3.250   15.46    6.57   -2.53   0.000   0.200   0.000    0.00
   3.300   14.16    4.78   -2.82   0.000   0.200   0.000    0.00
   3.350   14.72    5.30   -2.92   0.000   0.200   0.000    0.00
   3.400   15.32    6.21   -2.88   0.000   0.200   0.000    0.00
   3.450   15.07    5.99   -2.54   0.000   0.200   0.000    0.00
   3.500   15.28    5.73   -2.59   0.000   0.200   0.000    0.00
   3.550   15.00    7.84   -2.63   0.000   0.200   0.000    0.00
   3.600   15.02    9.53   -2.93   0.000   0.200   0.000    0.00
   3.650   14.85   13.12   -2.34   0.000   0.200   0.000    0.00
   3.700   14.64   15.73   -1.72   0.000   0.200   0.000    0.00
   3.750   14.22   13.23   -0.52   0.000   0.200   0.000    0.00
   3.800   13.76   14.98   -1.01   0.000   0.200   0.000    0.00
   3.850   13.83   13.12   -0.12   0.000   0.200   0.000    0.00
   3.900   13.57   12.00    0.41   0.000   0.200   0.000    0.00
   3.950   13.87   13.90    0.21   0.000   0.200   0.000    0.00
   4.000   14.05    9.12    0.42   0.000   0.200   0.000    0.00
   4.050   14.17   10.51    1.26   0.000   0.200   0.000    0.00
   4.100   13.66   12.24    1.24   0.000   0.200   0.000    0.00
   4.150   13.71    9.38    1.26   0.000   0.200   0.000    0.00
   4.200   14.34    7.37    1.31   0.000   0.200   0.000    0.00
   4.250   14.36    9.57    1.11   0.000   0.200   0.000    0.00
   4.300   13.84   10.17    1.60   0.000   0.200   0.000    0.00
   4.350   13.21    7.14    1.32   0.000   0.200   0.000    0.00
   4.400   13.54    8.87    1.29   0.000   0.200   0.000    0.00
   4.450   14.07    7.33    0.49   0.000   0.200   0.000    0.00
   4.500   14.40    5.28    0.04   0.000   0.200   0.000    0.00
   4.550   13.93    4.60    0.50   0.000   0.200   0.000    0.00
   4.600   14.74    5.58    0.67   0.000   0.200   0.000    0.00
   4.650   14.75    0.76    0.20   0.000   0.200   0.000    0.00
   4.700   14.49    0.96    0.22   0.000   0.200   0.000    0.00
   4.750   13.39    0.90    0.53   0.000   0.200   0.000    0.00
   4.800   13.54   -3.10    0.15   0.000   0.200   0.000    0.00
   4.850   13.47   -4.59   -0.84   0.000   0.200   0.000    0.00
   4.900   13.28   -4.07   -0.67   0.000   0.200   0.000    0.00
   4.950   13.80    2.84   -0.30   0.000   0.200   0.000    0.00
   5.000   14.49    3.00   -0.77   0.000   0.200   0.000    0.00
   5.050   14.32    5.44   -0.14   0.000   0.200   0.000    0.00
   5.100   13.84    7.87   -0.72   0.000   0.200   0.000    0.00
   5.150   14.25    5.46   -1.02   0.000   0.200   0.000    0.00
   5.200   14.52    5.63   -0.27   0.000   0.200   0.000    0.00
   5.250   14.44    4.19   -0.10   0.000   0.200   0.000    0.00
   5.300   14.52    3.40    0.28   0.000   0.200   0.000    0.00
   5.350   14.60    6.70   -0.70   0.000   0.200   0.000    0.00
   5.400   14.07    4.86   -1.14   0.000   0.200   0.000    0.00
   5.450   14.10    9.51   -0.76   0.000   0.200   0.000    0.00
   5.500   13.88   13.59   -1.37   0.000   0.200   0.000    0.00
   5.550   14.20   15.47   -1.56   0.000   0.200   0.000    0.00
   5.600   14.10   16.82   -1.22   0.000   0.200   0.000    0.00
   5.650   13.63   13.46   -0.53   0.000   0.200   0.000    0.00
   5.700   12.60   14.24   -0.63   0.000   0.200   0.000    0.00
   5.750   12.65   12.37   -0.74   0.000   0.200   0.000    0.00
   5.800   13.26   14.37   -1.21   0.000   0.200   0.000    0.00
   5.850   13.07   14.73   -0.32   0.000   0.200   0.000    0.00
   5.900   13.59   12.53    0.57   0.000   0.200   0.000    0.00
   5.950   13.33    9.25    0.31   0.000   0.200   0.000    0.00
   6.000   12.77    6.00    0.07   0.000   0.200   0.000    0.00
   6.050   12.89    5.36    0.39   0.000   0.200   0.000    0.00
   6.100   12.56    5.66    0.69   0.000   0.200   0.000    0.00
   6.150   12.70    2.58   -0.42   0.000   0.200   0.000    0.00
   6.200   13.31   -0.78    0.64   0.000   0.200   0.000    0.00
   6.250   13.12    1.75    0.98   0.000   0.200   0.000    0.00
   6.300   13.21    2.74    0.41   0.000   0.200   0.000    0.00
   6.350   12.91   -2.28   -0.45   0.000   0.200   0.000    0.00
   6.400   13.40   -1.58   -0.46   0.000   0.200   0.000    0.00
   6.450   13.36   -2.30   -0.64   0.000   0.200   0.000    0.00
   6.500   13.63   -1.74   -0.51   0.000   0.200   0.000    0.00
   6.550   13.72    1.35   -0.31   0.000   0.200   0.000    0.00
   6.600   13.55    1.23   -0.65   0.000   0.200   0.000    0.00
   6.650   13.60   -1.79   -0.18   0.000   0.200   0.000    0.00
   6.700   13.70   -2.14   -0.52   0.000   0.200   0.000    0.00
   6.750   13.37   -1.33   -0.78   0.000   0.200   0.000    0.00
   6.800   13.72   -2.27   -0.26   0.000   0.200   0.000    0.00
   6.850   13.12    0.31   -0.80   0.000   0.200   0.000    0.00
   6.900   13.35    0.17   -0.46   0.000   0.200   0.000    0.00
   6.950   13.35    0.33    0.03   0.000   0.200   0.000    0.00
   7.000   13.72   -0.72    0.29   0.000   0.200   0.000    0.00
   7.050   13.66    0.29   -0.62   0.000   0.200   0.000    0.00
   7.100   13.86    0.31   -0.29   0.000   0.200   0.000    0.00
   7.150   13.89    0.11   -0.38   0.000   0.200   0.000    0.00
   7.200   13.77   -2.21    0.31   0.000   0.200   0.000    0.00
   7.250   14.02   -1.55    0.78   0.000   0.200   0.000    0.00
   7.300   14.92    2.54    0.99   0.000   0.200   0.000    0.00
   7.350   14.60    1.41   -0.19   0.000   0.200   0.000    0.00
   7.400   14.34    0.35    0.05   0.000   0.200   0.000    0.00
   7.450   14.37    1.70   -0.02   0.000   0.200   0.000    0.00
   7.500   13.68    1.82   -0.23   0.000   0.200   0.000    0.00
   7.550   14.38   -1.30   -0.13   0.000   0.200   0.000    0.00
   7.600   14.13    0.66    1.01   0.000   0.200   0.000    0.00
   7.650   13.42   -0.80    1.38   0.000   0.200   0.000    0.00
   7.700   12.71   -3.03    0.11   0.000   0.200   0.000    0.00
   7.750   13.03   -2.93   -0.54   0.000   0.200   0.000    0.00
   7.800   13.28   -3.79    0.01   0.000   0.200   0.000    0.00
   7.850   13.05   -6.11   -0.21   0.000   0.200   0.000    0.00
   7.900   13.37   -5.00   -0.53   0.000   0.200   0.000    0.00
   7.950   13.55   -5.51   -1.29   0.000   0.200   0.000    0.00
   8.000   13.69   -6.05   -0.62   0.000   0.200   0.000    0.00
   8.050   13.79   -8.50   -0.71   0.000   0.200   0.000    0.00
   8.100   13.60   -7.41   -0.91   0.000   0.200   0.000    0.00
   8.150   14.19  -11.90   -0.26   0.000   0.200   0.000    0.00
   8.200   14.51   -5.73   -0.01   0.000   0.200   0.000    0.00
   8.250   14.35   -2.11   -0.71   0.000   0.200   0.000    0.00
   8.300   14.68    0.29   -0.84   0.000   0.200   0.000    0.00
   8.350   15.80    1.49   -1.54   0.000   0.200   0.000    0.00
   8.400   16.17    0.62   -2.13   0.000   0.200   0.000    0.00
   8.450   15.89   -1.30   -1.44   0.000   0.200   0.000    0.00
   8.500   15.70   -4.17   -0.89   0.000   0.200   0.000    0.00
   8.550   15.13   -4.99   -0.53   0.000   0.200   0.000    0.00
   8.600   15.02   -6.13   -0.04   0.000   0.200   0.000    0.00
   8.650   14.56   -5.67   -0.49   0.000   0.200   0.000    0.00
   8.700   14.68   -1.81   -0.85   0.000   0.200   0.000    0.00
   8.750   14.89   -0.56    0.04   0.000   0.200   0.000    0.00
   8.800   14.93   -4.10    0.72   0.000   0.200   0.000    0.00
   8.850   14.52    0.32    0.47   0.000   0.200   0.000    0.00
   8.900   14.34    2.95   -0.59   0.000   0.200   0.000    0.00
   8.950   14.11    2.11   -1.15   0.000   0.200   0.000    0.00
   9.000   14.37    3.57   -0.78   0.000   0.200   0.000    0.00
   9.050   14.78    4.67   -1.17   0.000   0.200   0.000    0.00
   9.100   14.38    3.74   -0.82   0.000   0.200   0.000    0.00
   9.150   14.60    0.40   -1.44   0.000   0.200   0.000    0.00
   9.200   14.74    3.81   -1.63   0.000   0.200   0.000    0.00
   9.250   14.46    0.45   -1.47   0.000   0.200   0.000    0.00
   9.300   14.73   -2.63   -1.04   0.000   0.200   0.000    0.00
   9.350   14.59   -2.46   -0.23   0.000   0.200   0.000    0.00
   9.400   14.60   -2.14   -0.19   0.000   0.200   0.000    0.00
   9.450   14.98   -4.06   -0.48   0.000   0.200   0.000    0.00
   9.500   15.50   -6.68   -0.92   0.000   0.200   0.000    0.00
   9.550   15.61  -12.13   -1.22   0.000   0.200   0.000    0.00
   9.600   15.80  -11.08   -2.25   0.000   0.200   0.000    0.00
   9.650   16.33  -11.52   -2.04   0.000   0.200   0.000    0.00
   9.700   16.51   -9.67   -2.15   0.000   0.200   0.000    0.00
   9.750   16.32   -7.30   -1.64   0.000   0.200   0.000    0.00
   9.800   15.85  -10.36   -2.17   0.000   0.200   0.000    0.00
   9.850   16.07   -9.28   -1.77   0.000   0.200   0.000    0.00
   9.900   16.45   -8.06   -0.91   0.000   0.200   0.000    0.00
   9.950   17.27   -6.22   -1.56   0.000   0.200   0.000    0.00
  10.000   17.18   -6.68   -2.36   0.000   0.200   0.000    0.00
  10.050   16.13   -5.00   -2.57   0.000   0.200   0.000    0.00
  10.100   15.96   -7.71   -2.24   0.000   0.200   0.000    0.00
  10.150   16.40   -9.35   -2.04   0.000   0.200   0.000    0.00
  10.200   15.60  -10.19   -2.17   0.000   0.200   0.000    0.00
  10.250   15.75  -13.26   -2.48   0.000   0.200   0.000    0.00
  10.300   15.88   -9.82   -2.21   0.000   0.200   0.000    0.00
  10.350   16.22   -8.57   -1.83   0.000   0.200   0.000    0.00
  10.400   15.43   -9.02   -1.11   0.000   0.200   0.000    0.00
  10.450   15.91   -8.39   -1.09   0.000   0.200   0.000    0.00
  10.500   16.50   -7.41    0.17   0.000   0.200   0.000    0.00
  10.550   16.13   -6.42    1.03   0.000   0.200   0.000    0.00
  10.600   16.67   -3.78    1.08   0.000   0.200   0.000    0.00
  10.650   16.42   -1.50    1.03   0.000   0.200   0.000    0.00
  10.700   15.87   -1.47    0.77   0.000   0.200   0.000    0.00
  10.750   15.14   -5.10    0.86   0.000   0.200   0.000    0.00
  10.800   15.49   -2.80    1.17   0.000   0.200   0.000    0.00
  10.850   16.41   -1.04    0.66   0.000   0.200   0.000    0.00
  10.900   17.37   -1.84    0.72   0.000   0.200   0.000    0.00
  10.950   15.96   -3.63    0.78   0.000   0.200   0.000    0.00
  11.000   16.76   -3.97    0.81   0.000   0.200   0.000    0.00
  11.050   17.51   -5.24    0.34   0.000   0.200   0.000    0.00
  11.100   17.94   -7.74    0.78   0.000   0.200   0.000    0.00
  11.150   17.17   -5.44    0.83   0.000   0.200   0.000    0.00
  11.200   17.84   -4.15    0.37   0.000   0.200   0.000    0.00
  11.250   16.54    1.33    0.24   0.000   0.200   0.000    0.00
  11.300   16.65    1.96   -0.16   0.000   0.200   0.000    0.00
  11.350   17.04    1.21   -0.57   0.000   0.200   0.000    0.00
  11.400   17.17    2.00    0.08   0.000   0.200   0.000    0.00
  11.450   17.43   -2.02   -0.29   0.000   0.200   0.000    0.00
  11.500   17.68   -2.23   -0.73   0.000   0.200   0.000    0.00
  11.550   17.92   -0.55   -0.46   0.000   0.200   0.000    0.00
  11.600   18.52   -1.49   -0.67   0.000   0.200   0.000    0.00
  11.650   18.07   -1.78    0.12   0.000   0.200   0.000    0.00
  11.700   17.28   -1.11    0.02   0.000   0.200   0.000    0.00
  11.750   17.46   -1.56    1.00   0.000   0.200   0.000    0.00
  11.800   17.58   -1.76    1.11   0.000   0.200   0.000    0.00
  11.850   17.26   -1.31    1.49   0.000   0.200   0.000    0.00
  11.900   17.86    0.23    1.50   0.000   0.200   0.000    0.00
  11.950   17.26   -1.85    1.51   0.000   0.200   0.000    0.00
  12.000   16.84   -3.51    1.77   0.000   0.200   0.000    0.00
  12.050   17.46   -4.07    1.33   0.000   0.200   0.000    0.00
  12.100   17.51   -3.45    1.23   0.000   0.200   0.000    0.00
  12.150   17.59   -4.75    0.74   0.000   0.200   0.000    0.00
  12.200   17.01   -3.29    1.29   0.000   0.200   0.000    0.00
  12.250   16.14   -2.57    1.86   0.000   0.200   0.000    0.00
  12.300   16.80   -2.12    1.54   0.000   0.200   0.000    0.00
  12.350   16.42   -1.38    0.41   0.000   0.200   0.000    0.00
  12.400   15.30    0.78    0.13   0.000   0.200   0.000    0.00
  12.450   15.51   -1.38   -0.01   0.000   0.200   0.000    0.00
  12.500   15.01   -0.49   -0.19   0.000   0.200   0.000    0.00
  12.550   14.96    1.16    0.47   0.000   0.200   0.000    0.00
  12.600   15.33    0.49    1.10   0.000   0.200   0.000    0.00
  12.650   15.05   -2.15    1.51   0.000   0.200   0.000    0.00
  12.700   15.04   -3.12    0.91   0.000   0.200   0.000    0.00
  12.750   15.26   -1.40    1.20   0.000   0.200   0.000    0.00
  12.800   15.60   -0.34    0.71   0.000   0.200   0.000    0.00
  12.850   15.31    0.84    0.07   0.000   0.200   0.000    0.00
  12.900   15.04   -0.51   -0.33   0.000   0.200   0.000    0.00
  12.950   14.74   -0.18    0.24   0.000   0.200   0.000    0.00
  13.000   15.39   -0.64    0.79   0.000   0.200   0.000    0.00
  13.050   16.00    1.15    0.58   0.000   0.200   0.000    0.00
  13.100   15.98   -0.54   -0.02   0.000   0.200   0.000    0.00
  13.150   16.00    0.26   -0.24   0.000   0.200   0.000    0.00
  13.200   16.32    0.55   -0.91   0.000   0.200   0.000    0.00
  13.250   15.89   -4.80   -1.10   0.000   0.200   0.000    0.00
  13.300   15.54   -8.40   -0.82   0.000   0.200   0.000    0.00
  13.350   15.62   -6.86   -0.76   0.000   0.200   0.000    0.00
  13.400   16.11   -3.80   -0.40   0.000   0.200   0.000    0.00
  13.450   16.53   -5.62   -0.08   0.000   0.200   0.000    0.00
  13.500   16.40   -6.77   -0.33   0.000   0.200   0.000    0.00
  13.550   15.43   -5.64   -0.51   0.000   0.200   0.000    0.00
  13.600   14.57   -4.56   -0.61   0.000   0.200   0.000    0.00
  13.650   14.88   -3.66   -0.89   0.000   0.200   0.000    0.00
  13.700   15.13   -9.42    0.26   0.000   0.200   0.000    0.00
  13.750   16.20   -8.13   -0.45   0.000   0.200   0.000    0.00
  13.800   15.94   -8.55   -1.41   0.000   0.200   0.000    0.00
  13.850   16.25   -7.62   -0.82   0.000   0.200   0.000    0.00
  13.900   16.61   -4.98   -0.60   0.000   0.200   0.000    0.00
  13.950   16.22   -5.78   -1.11   0.000   0.200   0.000    0.00
  14.000   16.38   -7.39   -1.37   0.000   0.200   0.000    0.00
  14.050   16.12   -3.33   -0.74   0.000   0.200   0.000    0.00
  14.100   16.07   -4.22   -0.69   0.000   0.200   0.000    0.00
  14.150   15.69   -6.49   -1.06   0.000   0.200   0.000    0.00
  14.200   16.20   -8.06   -0.17   0.000   0.200   0.000    0.00
  14.250   16.26   -7.71   -0.08   0.000   0.200   0.000    0.00
  14.300   16.59   -7.65   -0.50   0.000   0.200   0.000    0.00
  14.350   16.00   -8.88   -0.74   0.000   0.200   0.000    0.00
  14.400   16.20   -6.79   -0.79   0.000   0.200   0.000    0.00
  14.450   16.13   -9.34    0.44   0.000   0.200   0.000    0.00
  14.500   16.27  -14.32    0.69   0.000   0.200   0.000    0.00
  14.550   16.36  -14.11    0.71   0.000   0.200   0.000    0.00
  14.600   15.81  -14.59    0.61   0.000   0.200   0.000    0.00
  14.650   15.67  -15.25    1.03   0.000   0.200   0.000    0.00
  14.700   15.88  -16.45    1.35   0.000   0.200   0.000    0.00
  14.750   15.55  -16.47    1.49   0.000   0.200   0.000    0.00
  14.800   14.90  -14.15    1.50   0.000   0.200   0.000    0.00
  14.850   15.67  -11.98    1.89   0.000   0.200   0.000    0.00
  14.900   15.93  -13.17    1.65   0.000   0.200   0.000    0.00
  14.950   14.98  -12.21    1.30   0.000   0.200   0.000    0.00
  15.000   14.90  -13.14    1.30   0.000   0.200   0.000    0.00
  15.050   14.92  -14.93    1.74   0.000   0.200   0.000    0.00
  15.100   15.34  -18.05    1.34   0.000   0.200   0.000    0.00
  15.150   15.21  -18.24    1.91   0.000   0.200   0.000    0.00
  15.200   14.76  -18.32    1.36   0.000   0.200   0.000    0.00
  15.250   14.18  -14.49    1.95   0.000   0.200   0.000    0.00
  15.300   14.58  -14.08    1.79   0.000   0.200   0.000    0.00
  15.350   15.57  -12.96    0.95   0.000   0.200   0.000    0.00
  15.400   14.82  -12.63    1.18   0.000   0.200   0.000    0.00
  15.450   15.19  -12.76    1.28   0.000   0.200   0.000    0.00
  15.500   14.95  -10.81    0.86   0.000   0.200   0.000    0.00
  15.550   14.94  -10.03    0.02   0.000   0.200   0.000    0.00
  15.600   14.71   -8.83   -0.67   0.000   0.200   0.000    0.00
  15.650   14.51   -6.56    0.52   0.000   0.200   0.000    0.00
  15.700   14.72   -7.64    0.66   0.000   0.200   0.000    0.00
  15.750   15.18   -6.23    0.49   0.000   0.200   0.000    0.00
  15.800   15.02   -7.24    0.78   0.000   0.200   0.000    0.00
  15.850   14.47  -13.49   -0.06   0.000   0.200   0.000    0.00
  15.900   13.88  -15.11   -0.17   0.000   0.200   0.000    0.00
  15.950   14.93  -16.54   -0.31   0.000   0.200   0.000    0.00
  16.000   15.30  -14.78   -0.10   0.000   0.200   0.000    0.00
  16.050   15.15  -17.58    0.12   0.000   0.200   0.000    0.00
  16.100   14.51  -19.70    0.22   0.000   0.200   0.000    0.00
  16.150   15.01  -17.80    0.27   0.000   0.200   0.000    0.00
  16.200   15.50  -15.84    0.18   0.000   0.200   0.000    0.00
  16.250   15.61  -15.11    0.58   0.000   0.200   0.000    0.00
  16.300   15.11  -14.51    0.51   0.000   0.200   0.000    0.00
  16.350   14.76  -17.70   -0.17   0.000   0.200   0.000    0.00
  16.400   15.27  -17.14    0.71   0.000   0.200   0.000    0.00
  16.450   15.37  -14.39    0.25   0.000   0.200   0.000    0.00
  16.500   14.96  -15.32    0.00   0.000   0.200   0.000    0.00
  16.550   15.36  -14.65    0.17   0.000   0.200   0.000    0.00
  16.600   15.37  -16.62   -0.07   0.000   0.200   0.000    0.00
  16.650   15.29  -20.47   -0.20   0.000   0.200   0.000    0.00
  16.700   15.90  -20.40   -0.43   0.000   0.200   0.000    0.00
  16.750   17.08  -20.27   -0.42   0.000   0.200   0.000    0.00
  16.800   16.37  -21.21   -1.01   0.000   0.200   0.000    0.00
  16.850   15.68  -18.78   -0.80   0.000   0.200   0.000    0.00
  16.900   15.46  -13.92   -0.70   0.000   0.200   0.000    0.00
  16.950   15.22  -15.19   -0.38   0.000   0.200   0.000    0.00
  17.000   15.24  -15.24   -0.73   0.000   0.200   0.000    0.00
  17.050   15.64  -12.91   -1.70   0.000   0.200   0.000    0.00
  17.100   15.47  -12.53   -1.37   0.000   0.200   0.000    0.00
  17.150   15.78  -14.24   -1.18   0.000   0.200   0.000    0.00
  17.200   16.22  -16.53   -0.63   0.000   0.200   0.000    0.00
  17.250   16.28  -18.33   -0.74   0.000   0.200   0.000    0.00
  17.300   16.74  -16.78   -0.80   0.000   0.200   0.000    0.00
  17.350   15.99  -18.82   -0.54   0.000   0.200   0.000    0.00
  17.400   15.52  -19.64   -0.52   0.000   0.200   0.000    0.00
  17.450   15.24  -17.82   -0.31   0.000   0.200   0.000    0.00
  17.500   14.52  -15.10   -0.02   0.000   0.200   0.000    0.00
  17.550   15.09  -14.74    0.25   0.000   0.200   0.000    0.00
  17.600   15.33  -12.96   -0.01   0.000   0.200   0.000    0.00
  17.650   15.41  -13.63    0.68   0.000   0.200   0.000    0.00
  17.700   14.79  -15.56    1.04   0.000   0.200   0.000    0.00
  17.750   14.84  -11.68    0.94   0.000   0.200   0.000    0.00
  17.800   15.22  -10.51    1.43   0.000   0.200   0.000    0.00
  17.850   15.73  -12.39    1.22   0.000   0.200   0.000    0.00
  17.900   15.41  -12.88    1.79   0.000   0.200   0.000    0.00
  17.950   16.15  -13.96    2.25   0.000   0.200   0.000    0.00
  18.000   16.85  -15.46    1.36   0.000   0.200   0.000    0.00
  18.050   17.20  -15.04    0.54   0.000   0.200   0.000    0.00
  18.100   17.39  -11.91    0.60   0.000   0.200   0.000    0.00
  18.150   17.77  -14.73    0.30   0.000   0.200   0.000    0.00
  18.200   18.32  -14.78   -0.86   0.000   0.200   0.000    0.00
  18.250   18.04  -13.61   -0.57   0.000   0.200   0.000    0.00
  18.300   17.53  -14.82   -0.52   0.000   0.200   0.000    0.00
  18.350   16.91  -14.92   -0.74   0.000   0.200   0.000    0.00
  18.400   16.92  -14.41   -0.52   0.000   0.200   0.000    0.00
  18.450   17.49  -14.00   -0.51   0.000   0.200   0.000    0.00
  18.500   17.29  -13.68   -0.34   0.000   0.200   0.000    0.00
  18.550   17.78  -12.52   -0.85   0.000   0.200   0.000    0.00
  18.600   17.41  -12.42    0.02   0.000   0.200   0.000    0.00
  18.650   18.34  -11.35    0.18   0.000   0.200   0.000    0.00
  18.700   18.51  -14.98    0.27   0.000   0.200   0.000    0.00
  18.750   18.29  -16.77    0.42   0.000   0.200   0.000    0.00
  18.800   18.86  -17.06    0.30   0.000   0.200   0.000    0.00
  18.850   18.31  -13.14   -0.12   0.000   0.200   0.000    0.00
  18.900   17.80  -12.56   -0.69   0.000   0.200   0.000    0.00
  18.950   17.75  -15.00   -0.06   0.000   0.200   0.000    0.00
  19.000   17.22  -14.26    0.30   0.000   0.200   0.000    0.00
  19.050   17.68  -13.79    0.25   0.000   0.200   0.000    0.00
  19.100   17.69  -14.39   -0.11   0.000   0.200   0.000    0.00
  19.150   17.82  -14.99   -0.36   0.000   0.200   0.000    0.00
  19.200   17.90  -15.86   -0.23   0.000   0.200   0.000    0.00
  19.250   18.13  -13.34    0.12   0.000   0.200   0.000    0.00
  19.300   18.46  -16.56   -0.24   0.000   0.200   0.000    0.00
  19.350   17.60  -18.04    0.01   0.000   0.200   0.000    0.00
  19.400   18.23  -16.60   -0.24   0.000   0.200   0.000    0.00
  19.450   17.97  -17.25   -0.68   0.000   0.200   0.000    0.00
  19.500   17.83  -18.73   -0.93   0.000   0.200   0.000    0.00
  19.550   16.69  -18.58   -1.65   0.000   0.200   0.000    0.00
  19.600   16.45  -16.08   -1.12   0.000   0.200   0.000    0.00
  19.650   16.48  -14.38   -2.24   0.000   0.200   0.000    0.00
  19.700   16.76  -13.11   -2.15   0.000   0.200   0.000    0.00
  19.750   17.00  -13.72   -2.13   0.000   0.200   0.000    0.00
  19.800   16.94  -14.79   -1.47   0.000   0.200   0.000    0.00
  19.850   16.98  -13.62   -0.35   0.000   0.200   0.000    0.00
  19.900   17.10  -13.08   -0.51   0.000   0.200   0.000    0.00
  19.950   17.58  -13.72   -0.52   0.000   0.200   0.000    0.00
  20.000   17.52  -14.07    0.22   0.000   0.200   0.000    0.00
  20.050   17.46  -13.41   -0.03   0.000   0.200   0.000    0.00
  20.100   17.55  -13.89   -0.58   0.000   0.200   0.000    0.00
  20.150   17.04  -13.45   -1.35   0.000   0.200   0.000    0.00
  20.200   16.78  -14.33   -0.52   0.000   0.200   0.000    0.00
  20.250   16.77  -12.40   -0.14   0.000   0.200   0.000    0.00
  20.300   16.59  -10.93   -0.38   0.000   0.200   0.000    0.00
  20.350   17.09  -11.82   -0.23   0.000   0.200   0.000    0.00
  20.400   16.99   -8.92   -0.76   0.000   0.200   0.000    0.00
  20.450   16.69  -12.20   -1.11   0.000   0.200   0.000    0.00
  20.500   16.05  -15.87   -0.83   0.000   0.200   0.000    0.00
  20.550   15.48  -14.38   -0.50   0.000   0.200   0.000    0.00
  20.600   15.52  -12.92   -0.03   0.000   0.200   0.000    0.00
  20.650   15.13   -9.15   -0.05   0.000   0.200   0.000    0.00
  20.700   15.08   -7.66   -0.28   0.000   0.200   0.000    0.00
  20.750   15.99  -11.71   -0.26   0.000   0.200   0.000    0.00
  20.800   15.96  -11.33    0.36   0.000   0.200   0.000    0.00
  20.850   15.67  -13.13   -0.05   0.000   0.200   0.000    0.00
  20.900   16.21  -11.90   -0.11   0.000   0.200   0.000    0.00
  20.950   17.13   -9.50   -0.06   0.000   0.200   0.000    0.00
  21.000   16.51   -8.61   -0.53   0.000   0.200   0.000    0.00
  21.050   16.98   -8.18   -0.45   0.000   0.200   0.000    0.00
  21.100   16.55   -7.38   -0.80   0.000   0.200   0.000    0.00
  21.150   16.98  -10.28   -1.10   0.000   0.200   0.000    0.00
  21.200   16.70  -11.88   -0.91   0.000   0.200   0.000    0.00
  21.250   16.67  -10.17   -0.81   0.000   0.200   0.000    0.00
  21.300   17.10   -9.01   -1.81   0.000   0.200   0.000    0.00
  21.350   17.38   -5.59   -2.63   0.000   0.200   0.000    0.00
  21.400   17.93   -5.26   -2.51   0.000   0.200   0.000    0.00
  21.450   18.04   -7.90   -1.60   0.000   0.200   0.000    0.00
  21.500   17.37   -8.35   -1.90   0.000   0.200   0.000    0.00
  21.550   17.42   -8.47   -1.82   0.000   0.200   0.000    0.00
  21.600   17.55   -6.69   -1.52   0.000   0.200   0.000    0.00
  21.650   17.92   -5.66   -2.38   0.000   0.200   0.000    0.00
  21.700   17.34   -4.92   -2.25   0.000   0.200   0.000    0.00
  21.750   17.33   -4.91   -1.36   0.000   0.200   0.000    0.00
  21.800   16.57   -6.23   -1.02   0.000   0.200   0.000    0.00
  21.850   16.50   -4.35   -0.93   0.000   0.200   0.000    0.00
  21.900   16.75   -3.84   -0.96   0.000   0.200   0.000    0.00
  21.950   16.85   -2.79   -1.45   0.000   0.200   0.000    0.00
  22.000   16.95   -3.02   -0.69   0.000   0.200   0.000    0.00
  22.050   17.60   -3.59   -0.56   0.000   0.200   0.000    0.00
  22.100   17.62   -3.19   -1.35   0.000   0.200   0.000    0.00
  22.150   18.23   -5.51   -1.37   0.000   0.200   0.000    0.00
  22.200   18.63   -5.74   -1.39   0.000   0.200   0.000    0.00
  22.250   18.46   -6.35   -0.94   0.000   0.200   0.000    0.00
  22.300   18.24   -8.72   -1.19   0.000   0.200   0.000    0.00
  22.350   18.31   -8.11   -1.24   0.000   0.200   0.000    0.00