! This hub-height wind-speed file was generated by TurbSim (v1.06.00, 21-Sep-2012) on 16-Jun-2018 at 18:37:43.
!
! The requested statistics for this data were:
!    Mean Total Wind Speed =   17.000 m/s
!    Turbulence Intensity  =   20.740%
!
!   Time  HorSpd  WndDir  VerSpd  HorShr  VerShr  LnVShr  GstSpd
!  (sec)   (m/s)   (deg)   (m/s)     (-)     (-)     (-)   (m/s)
   0.000   16.68    7.52   -2.73   0.000   0.200   0.000    0.00
   0.050   15.88   12.22   -3.65   0.000   0.200   0.000    0.00
   0.100   15.75   10.96   -2.99   0.000   0.200   0.000    0.00
   0.150   15.99    6.81   -3.31   0.000   0.200   0.000    0.00
   0.200   16.46    8.20   -2.79   0.000   0.200   0.000    0.00
   0.250   17.00    1.67   -3.69   0.000   0.200   0.000    0.00
   0.300   17.47    3.78   -3.80   0.000   0.200   0.000    0.00
   0.350   17.26    4.38   -2.61   0.000   0.200   0.000    0.00
   0.400   17.19    2.56   -2.39   0.000   0.200   0.000    0.00
   0.450   17.35    4.97   -2.05   0.000   0.200   0.000    0.00
   0.500   17.79    8.11   -2.30   0.000   0.200   0.000    0.00
   0.550   17.58    8.00   -1.86   0.000   0.200   0.000    0.00
   0.600   18.40    8.94   -1.84   0.000   0.200   0.000    0.00
   0.650   18.98    3.45   -1.40   0.000   0.200   0.000    0.00
   0.700   19.46   -0.21   -1.23   0.000   0.200   0.000    0.00
   0.750   20.74    2.60   -0.75   0.000   0.200   0.000    0.00
   0.800   20.63    2.73   -1.27   0.000   0.200   0.000    0.00
   0.850   20.19    2.04   -1.75   0.000   0.200   0.000    0.00
   0.900   19.84    3.00   -0.18   0.000   0.200   0.000    0.00
   0.950   18.77    5.56    0.06   0.000   0.200   0.000    0.00
   1.000   18.85    3.52   -0.86   0.000   0.200   0.000    0.00
   1.050   18.72    5.29   -0.69   0.000   0.200   0.000    0.00
   1.100   18.07    4.54    0.30   0.000   0.200   0.000    0.00
   1.150   18.51    7.42    0.52   0.000   0.200   0.000    0.00
   1.200   19.00    9.41    0.11   0.000   0.200   0.000    0.00
   1.250   18.41   12.46   -0.18   0.000   0.200   0.000    0.00
   1.300   18.03    9.40    0.06   0.000   0.200   0.000    0.00
   1.350   18.14    9.06    0.02   0.000   0.200   0.000    0.00
   1.400   17.15    8.72   -0.86   0.000   0.200   0.000    0.00
   1.450   17.25   10.42   -1.19   0.000   0.200   0.000    0.00
   1.500   17.06    8.59   -1.91   0.000   0.200   0.000    0.00
   1.550   17.86    6.42   -3.29   0.000   0.200   0.000    0.00
   1.600   18.46    6.37   -4.21   0.000   0.200   0.000    0.00
   1.650   17.25    8.80   -3.81   0.000   0.200   0.000    0.00
   1.700   17.04    6.62   -2.85   0.000   0.200   0.000    0.00
   1.750   18.00    6.88   -2.21   0.000   0.200   0.000    0.00
   1.800   18.70    6.06   -1.13   0.000   0.200   0.000    0.00
   1.850   18.77    7.16   -1.02   0.000   0.200   0.000    0.00
   1.900   19.13   11.12   -0.43   0.000   0.200   0.000    0.00
   1.950   18.97    9.38   -1.10   0.000   0.200   0.000    0.00
   2.000   18.60    7.66   -0.91   0.000   0.200   0.000    0.00
   2.050   18.71    8.07    0.07   0.000   0.200   0.000    0.00
   2.100   17.77    4.05    0.93   0.000   0.200   0.000    0.00
   2.150   17.28    6.10    1.71   0.000   0.200   0.000    0.00
   2.200   17.87    7.98    3.24   0.000   0.200   0.000    0.00
   2.250   17.21    3.36    3.86   0.000   0.200   0.000    0.00
   2.300   17.33    5.36    2.92   0.000   0.200   0.000    0.00
   2.350   16.92    6.50    1.70   0.000   0.200   0.000    0.00
   2.400   16.44    5.22    1.75   0.000   0.200   0.000    0.00
   2.450   16.26    0.16    1.30   0.000   0.200   0.000    0.00
   2.500   16.41    0.50    0.69   0.000   0.200   0.000    0.00
   2.550   17.22   -0.43    0.10   0.000   0.200   0.000    0.00
   2.600   17.39    1.17    0.52   0.000   0.200   0.000    0.00
   2.650   18.19    1.82    1.04   0.000   0.200   0.000    0.00
   2.700   18.36    0.38    0.98   0.000   0.200   0.000    0.00
   2.750   18.41   -2.02    0.80   0.000   0.200   0.000    0.00
   2.800   16.94   -0.30    1.37   0.000   0.200   0.000    0.00
   2.850   16.96    1.01    1.17   0.000   0.200   0.000    0.00
   2.900   16.28    4.75    1.28   0.000   0.200   0.000    0.00
   2.950   15.64    3.88    2.01   0.000   0.200   0.000    0.00
   3.000   16.13    1.00    1.96   0.000   0.200   0.000    0.00
   3.050   15.84    1.88    2.58   0.000   0.200   0.000    0.00
   3.100   15.80    2.43    2.26   0.000   0.200   0.000    0.00
   3.150   16.95    0.56    4.41   0.000   0.200   0.000    0.00
   3.200   16.33    0.97    3.83   0.000   0.200   0.000    0.00
   3.250   15.85    0.06    4.50   0.000   0.200   0.000    0.00
   3.300   15.74   -1.47    5.46   0.000   0.200   0.000    0.00
   3.350   15.88    1.50    5.45   0.000   0.200   0.000    0.00
   3.400   15.71    2.92    4.77   0.000   0.200   0.000    0.00
   3.450   15.56    3.21    4.37   0.000   0.200   0.000    0.00
   3.500   14.73    2.00    4.27   0.000   0.200   0.000    0.00
   3.550   14.66    1.13    4.06   0.000   0.200   0.000    0.00
   3.600   14.62   -1.77    2.82   0.000   0.200   0.000    0.00
   3.650   15.70   -3.36    2.39   0.000   0.200   0.000    0.00
   3.700   16.43   -4.59    2.59   0.000   0.200   0.000    0.00
   3.750   16.18    0.87    2.46   0.000   0.200   0.000    0.00
   3.800   16.93    2.19    1.68   0.000   0.200   0.000    0.00
   3.850   16.79    0.31    2.61   0.000   0.200   0.000    0.00
   3.900   16.31    1.64    2.09   0.000   0.200   0.000    0.00
   3.950   16.91    1.70    2.27   0.000   0.200   0.000    0.00
   4.000   17.30    1.73    2.77   0.000   0.200   0.000    0.00
   4.050   17.45    3.48    2.78   0.000   0.200   0.000    0.00
   4.100   18.06    0.78    2.85   0.000   0.200   0.000    0.00
   4.150   18.29   -1.02    2.25   0.000   0.200   0.000    0.00
   4.200   17.83   -1.76    2.90   0.000   0.200   0.000    0.00
   4.250   18.72    1.79    3.11   0.000   0.200   0.000    0.00
   4.300   18.52   -0.42    3.44   0.000   0.200   0.000    0.00
   4.350   18.97   -0.30    3.62   0.000   0.200   0.000    0.00
   4.400   18.82   -0.63    3.42   0.000   0.200   0.000    0.00
   4.450   18.12   -2.25    2.85   0.000   0.200   0.000    0.00
   4.500   17.80   -2.20    1.65   0.000   0.200   0.000    0.00
   4.550   17.93   -3.78    1.26   0.000   0.200   0.000    0.00
   4.600   18.38   -4.38   -0.03   0.000   0.200   0.000    0.00
   4.650   17.25   -1.43    1.68   0.000   0.200   0.000    0.00
   4.700   15.96    3.24    0.79   0.000   0.200   0.000    0.00
   4.750   16.36    1.20    1.75   0.000   0.200   0.000    0.00
   4.800   16.14   -0.01    1.46   0.000   0.200   0.000    0.00
   4.850   15.64    3.14    1.45   0.000   0.200   0.000    0.00
   4.900   15.23    0.47    2.58   0.000   0.200   0.000    0.00
   4.950   15.46    0.56    2.37   0.000   0.200   0.000    0.00
   5.000   15.31    2.92    2.26   0.000   0.200   0.000    0.00
   5.050   15.68    4.28    1.03   0.000   0.200   0.000    0.00
   5.100   15.33   -0.32    0.52   0.000   0.200   0.000    0.00
   5.150   14.77    0.52    0.44   0.000   0.200   0.000    0.00
   5.200   16.24    0.92    0.72   0.000   0.200   0.000    0.00
   5.250   15.39    1.24    1.72   0.000   0.200   0.000    0.00
   5.300   14.54    5.01    2.37   0.000   0.200   0.000    0.00
   5.350   15.36    6.58    1.45   0.000   0.200   0.000    0.00
   5.400   15.85    6.17    2.29   0.000   0.200   0.000    0.00
   5.450   14.84    4.93    2.46   0.000   0.200   0.000    0.00
   5.500   15.01    3.24    1.37   0.000   0.200   0.000    0.00
   5.550   14.69    2.64    1.92   0.000   0.200   0.000    0.00
   5.600   14.71    7.75    1.96   0.000   0.200   0.000    0.00
   5.650   15.22   11.04    2.18   0.000   0.200   0.000    0.00
   5.700   15.41   12.20    2.34   0.000   0.200   0.000    0.00
   5.750   15.64   15.03    1.94   0.000   0.200   0.000    0.00
   5.800   16.78   22.44    0.50   0.000   0.200   0.000    0.00
   5.850   16.71   18.45    0.05   0.000   0.200   0.000    0.00
   5.900   16.23   18.77    0.40   0.000   0.200   0.000    0.00
   5.950   16.24   20.22   -0.79   0.000   0.200   0.000    0.00
   6.000   15.36   20.51   -0.64   0.000   0.200   0.000    0.00
   6.050   15.57   19.53   -1.14   0.000   0.200   0.000    0.00
   6.100   15.10   19.67   -0.89   0.000   0.200   0.000    0.00
   6.150   15.11   17.38   -0.68   0.000   0.200   0.000    0.00
   6.200   14.88   17.18    0.70   0.000   0.200   0.000    0.00
   6.250   15.05   16.77   -0.04   0.000   0.200   0.000    0.00
   6.300   14.63   17.67   -0.43   0.000   0.200   0.000    0.00
   6.350   14.45   14.55   -0.55   0.000   0.200   0.000    0.00
   6.400   14.04   19.10   -0.83   0.000   0.200   0.000    0.00
   6.450   13.65   19.85   -0.72   0.000   0.200   0.000    0.00
   6.500   13.27   15.28   -1.09   0.000   0.200   0.000    0.00
   6.550   11.73   15.37   -2.30   0.000   0.200   0.000    0.00
   6.600   11.71   15.10   -0.97   0.000   0.200   0.000    0.00
   6.650   12.51   13.57   -1.28   0.000   0.200   0.000    0.00
   6.700   12.83   13.69    0.07   0.000   0.200   0.000    0.00
   6.750   13.47   13.78    1.25   0.000   0.200   0.000    0.00
   6.800   13.03   16.73    1.04   0.000   0.200   0.000    0.00
   6.850   14.73   21.16    1.45   0.000   0.200   0.000    0.00
   6.900   14.24   21.96   -0.08   0.000   0.200   0.000    0.00
   6.950   15.47   25.85   -0.59   0.000   0.200   0.000    0.00
   7.000   15.13   29.02   -0.67   0.000   0.200   0.000    0.00
   7.050   15.98   30.82   -0.53   0.000   0.200   0.000    0.00
   7.100   16.32   28.41   -1.62   0.000   0.200   0.000    0.00
   7.150   16.18   26.20   -0.92   0.000   0.200   0.000    0.00
   7.200   16.30   26.28    0.38   0.000   0.200   0.000    0.00
   7.250   14.59   24.10    0.11   0.000   0.200   0.000    0.00
   7.300   15.17   19.88    0.80   0.000   0.200   0.000    0.00
   7.350   16.05   19.16    1.16   0.000   0.200   0.000    0.00
   7.400   16.21   21.61    0.83   0.000   0.200   0.000    0.00
   7.450   17.05   21.31    1.41   0.000   0.200   0.000    0.00
   7.500   17.00   22.82    1.03   0.000   0.200   0.000    0.00
   7.550   16.49   19.35    2.26   0.000   0.200   0.000    0.00
   7.600   15.95   15.07    2.77   0.000   0.200   0.000    0.00
   7.650   16.20   19.98    2.94   0.000   0.200   0.000    0.00
   7.700   14.68   16.41    3.78   0.000   0.200   0.000    0.00
   7.750   14.47   16.24    3.55   0.000   0.200   0.000    0.00
   7.800   14.30   12.69    2.92   0.000   0.200   0.000    0.00
   7.850   14.89   12.01    2.61   0.000   0.200   0.000    0.00
   7.900   15.80   12.17    2.59   0.000   0.200   0.000    0.00
   7.950   15.34   10.44    2.29   0.000   0.200   0.000    0.00
   8.000   15.86    9.45    2.97   0.000   0.200   0.000    0.00
   8.050   15.88    7.47    1.96   0.000   0.200   0.000    0.00
   8.100   16.24    9.96    0.84   0.000   0.200   0.000    0.00
   8.150   16.22    8.79    2.27   0.000   0.200   0.000    0.00
   8.200   14.97    6.48    2.59   0.000   0.200   0.000    0.00
   8.250   15.63    5.18    1.69   0.000   0.200   0.000    0.00
   8.300   16.96    5.12    0.73   0.000   0.200   0.000    0.00
   8.350   16.24    7.31    0.20   0.000   0.200   0.000    0.00
   8.400   15.91    2.85    0.87   0.000   0.200   0.000    0.00
   8.450   16.80    7.47    1.38   0.000   0.200   0.000    0.00
   8.500   16.67    7.02    2.44   0.000   0.200   0.000    0.00
   8.550   15.99    5.18    3.21   0.000   0.200   0.000    0.00
   8.600   16.43    6.75    1.76   0.000   0.200   0.000    0.00
   8.650   16.73    5.22    2.33   0.000   0.200   0.000    0.00
   8.700   16.88    3.41    2.64   0.000   0.200   0.000    0.00
   8.750   16.12    2.19    2.88   0.000   0.200   0.000    0.00
   8.800   16.20    1.97    2.22   0.000   0.200   0.000    0.00
   8.850   15.96    1.68    1.86   0.000   0.200   0.000    0.00
   8.900   16.56   -0.06    1.85   0.000   0.200   0.000    0.00
   8.950   16.45    2.73    1.03   0.000   0.200   0.000    0.00
   9.000   15.70    2.49    1.83   0.000   0.200   0.000    0.00
   9.050   16.23    6.60    2.33   0.000   0.200   0.000    0.00
   9.100   16.40    2.41    1.99   0.000   0.200   0.000    0.00
   9.150   16.00    2.19    2.18   0.000   0.200   0.000    0.00
   9.200   16.15    2.88    2.97   0.000   0.200   0.000    0.00
   9.250   16.51    0.94    1.87   0.000   0.200   0.000    0.00
   9.300   16.56    0.98    2.01   0.000   0.200   0.000    0.00
   9.350   15.88   -1.41    1.57   0.000   0.200   0.000    0.00
   9.400   15.66    2.61    1.79   0.000   0.200   0.000    0.00
   9.450   15.21    5.36    2.27   0.000   0.200   0.000    0.00
   9.500   15.94    6.25    1.56   0.000   0.200   0.000    0.00
   9.550   15.88    5.10    2.12   0.000   0.200   0.000    0.00
   9.600   16.79    3.75    2.45   0.000   0.200   0.000    0.00
   9.650   16.23    4.87    2.63   0.000   0.200   0.000    0.00
   9.700   15.10    5.72    1.63   0.000   0.200   0.000    0.00
   9.750   15.04    4.82   -0.26   0.000   0.200   0.000    0.00
   9.800   13.93    6.09   -0.25   0.000   0.200   0.000    0.00
   9.850   13.30    5.47   -0.71   0.000   0.200   0.000    0.00
   9.900   13.26    7.55   -0.03   0.000   0.200   0.000    0.00
   9.950   12.98   12.29   -0.16   0.000   0.200   0.000    0.00
  10.000   13.05   17.07    0.28   0.000   0.200   0.000    0.00
  10.050   12.47   18.42   -0.42   0.000   0.200   0.000    0.00
  10.100   13.19   20.76   -0.50   0.000   0.200   0.000    0.00
  10.150   13.93   15.04    0.46   0.000   0.200   0.000    0.00
  10.200   14.40   10.71    0.26   0.000   0.200   0.000    0.00
  10.250   13.87    8.23    1.50   0.000   0.200   0.000    0.00
  10.300   14.14    7.37    2.20   0.000   0.200   0.000    0.00
  10.350   13.99    6.79    1.21   0.000   0.200   0.000    0.00
  10.400   14.61    6.23    0.44   0.000   0.200   0.000    0.00
  10.450   14.41    8.44    2.24   0.000   0.200   0.000    0.00
  10.500   14.99   13.17    1.98   0.000   0.200   0.000    0.00
  10.550   14.90   11.98    1.85   0.000   0.200   0.000    0.00
  10.600   14.79   13.33    2.51   0.000   0.200   0.000    0.00
  10.650   14.36   15.93    3.11   0.000   0.200   0.000    0.00
  10.700   14.22   18.57    2.91   0.000   0.200   0.000    0.00
  10.750   14.55   13.04    2.35   0.000   0.200   0.000    0.00
  10.800   14.47   17.80    1.87   0.000   0.200   0.000    0.00
  10.850   13.83   18.22    0.78   0.000   0.200   0.000    0.00
  10.900   14.04   16.35    0.94   0.000   0.200   0.000    0.00
  10.950   15.02   18.79    1.14   0.000   0.200   0.000    0.00
  11.000   13.37   16.56    1.36   0.000   0.200   0.000    0.00
  11.050   13.77   16.92    0.42   0.000   0.200   0.000    0.00
  11.100   14.59   21.43    0.31   0.000   0.200   0.000    0.00
  11.150   14.00   20.26    0.60   0.000   0.200   0.000    0.00
  11.200   13.31   19.76    1.15   0.000   0.200   0.000    0.00
  11.250   13.33   22.35    1.07   0.000   0.200   0.000    0.00
  11.300   14.11   24.55    1.03   0.000   0.200   0.000    0.00
  11.350   13.76   25.20    1.46   0.000   0.200   0.000    0.00
  11.400   13.38   25.03    1.03   0.000   0.200   0.000    0.00
  11.450   12.62   24.25    0.18   0.000   0.200   0.000    0.00
  11.500   12.72   27.70   -0.15   0.000   0.200   0.000    0.00
  11.550   14.39   25.18    0.20   0.000   0.200   0.000    0.00
  11.600   13.25   20.77    0.33   0.000   0.200   0.000    0.00
  11.650   14.18   19.91   -0.52   0.000   0.200   0.000    0.00
  11.700   13.56   17.27   -0.58   0.000   0.200   0.000    0.00
  11.750   13.52   17.80   -0.66   0.000   0.200   0.000    0.00
  11.800   13.91   16.02   -1.10   0.000   0.200   0.000    0.00
  11.850   13.57   11.82   -1.27   0.000   0.200   0.000    0.00
  11.900   14.16   15.37   -0.30   0.000   0.200   0.000    0.00
  11.950   13.05   11.45   -0.33   0.000   0.200   0.000    0.00
  12.000   13.38   10.08   -0.55   0.000   0.200   0.000    0.00
  12.050   12.74   11.57    0.12   0.000   0.200   0.000    0.00
  12.100   12.63   10.60    0.70   0.000   0.200   0.000    0.00
  12.150   12.70    4.50    1.41   0.000   0.200   0.000    0.00
  12.200   12.90    4.11    0.94   0.000   0.200   0.000    0.00
  12.250   13.02    4.96    0.81   0.000   0.200   0.000    0.00
  12.300   13.19    3.87    0.79   0.000   0.200   0.000    0.00
  12.350   13.65    4.91    0.41   0.000   0.200   0.000    0.00
  12.400   13.96    0.70    1.49   0.000   0.200   0.000    0.00
  12.450   13.30    1.15    1.68   0.000   0.200   0.000    0.00
  12.500   12.29    2.79    1.75   0.000   0.200   0.000    0.00
  12.550   11.23   11.15    1.60   0.000   0.200   0.000    0.00
  12.600   11.37   13.03    2.07   0.000   0.200   0.000    0.00
  12.650   10.78   20.03    2.60   0.000   0.200   0.000    0.00
  12.700   10.61   17.34    1.59   0.000   0.200   0.000    0.00
  12.750   11.19   16.12    1.43   0.000   0.200   0.000    0.00
  12.800   10.98   18.03    1.40   0.000   0.200   0.000    0.00
  12.850   10.79   18.53    0.93   0.000   0.200   0.000    0.00
  12.900   10.26   12.93    0.73   0.000   0.200   0.000    0.00
  12.950   10.22   13.90    0.57   0.000   0.200   0.000    0.00
  13.000   10.19   14.56    0.20   0.000   0.200   0.000    0.00
  13.050    8.73   13.17    1.56   0.000   0.200   0.000    0.00
  13.100    9.61    9.03   -0.42   0.000   0.200   0.000    0.00
  13.150    9.14    5.23   -0.22   0.000   0.200   0.000    0.00
  13.200   10.18    9.17   -0.28   0.000   0.200   0.000    0.00
  13.250   10.97    5.21   -0.74   0.000   0.200   0.000    0.00
  13.300   12.44    7.21   -1.26   0.000   0.200   0.000    0.00
  13.350   11.23    3.90   -0.72   0.000   0.200   0.000    0.00
  13.400   11.52    5.00   -1.71   0.000   0.200   0.000    0.00
  13.450   11.21    4.54   -1.86   0.000   0.200   0.000    0.00
  13.500   11.45    6.00   -2.04   0.000   0.200   0.000    0.00
  13.550   11.82    4.50   -2.98   0.000   0.200   0.000    0.00
  13.600   11.62    1.09   -3.50   0.000   0.200   0.000    0.00
  13.650   10.51    1.50   -2.33   0.000   0.200   0.000    0.00
  13.700   10.45    3.13   -1.63   0.000   0.200   0.000    0.00
  13.750    9.76    8.64   -1.77   0.000   0.200   0.000    0.00
  13.800    9.17   10.29   -1.27   0.000   0.200   0.000    0.00
  13.850    9.39    2.76   -1.75   0.000   0.200   0.000    0.00
  13.900   10.62    1.90   -2.23   0.000   0.200   0.000    0.00
  13.950   10.79   -5.25   -3.00   0.000   0.200   0.000    0.00
  14.000   10.28   -3.22   -3.09   0.000   0.200   0.000    0.00
  14.050    9.98   -2.06   -2.42   0.000   0.200   0.000    0.00
  14.100   10.14   -7.25   -3.07   0.000   0.200   0.000    0.00
  14.150    9.81   -6.44   -2.78   0.000   0.200   0.000    0.00
  14.200   10.24   -2.09   -2.47   0.000   0.200   0.000    0.00
  14.250   11.32    0.44   -2.87   0.000   0.200   0.000    0.00
  14.300   10.71    0.73   -2.75   0.000   0.200   0.000    0.00
  14.350   12.02    1.41   -1.04   0.000   0.200   0.000    0.00
  14.400   12.09    2.78   -0.39   0.000   0.200   0.000    0.00
  14.450   11.24    0.68    0.56   0.000   0.200   0.000    0.00
  14.500   12.01   -1.26   -0.29   0.000   0.200   0.000    0.00
  14.550   11.47    2.60   -1.63   0.000   0.200   0.000    0.00
  14.600   10.96    7.09   -0.91   0.000   0.200   0.000    0.00
  14.650    9.83   15.60   -1.32   0.000   0.200   0.000    0.00
  14.700   10.18   17.70   -1.79   0.000   0.200   0.000    0.00
  14.750    9.93   12.41   -1.93   0.000   0.200   0.000    0.00
  14.800    9.88   10.06   -2.57   0.000   0.200   0.000    0.00
  14.850    9.88    5.16   -2.93   0.000   0.200   0.000    0.00
  14.900   11.02    5.88   -1.62   0.000   0.200   0.000    0.00
  14.950   10.57    6.75   -1.87   0.000   0.200   0.000    0.00
  15.000   11.88   10.28   -1.03   0.000   0.200   0.000    0.00
  15.050   12.14   14.33    0.71   0.000   0.200   0.000    0.00
  15.100   12.69   15.61    1.44   0.000   0.200   0.000    0.00
  15.150   14.13   12.91    2.21   0.000   0.200   0.000    0.00
  15.200   12.70   12.81    2.29   0.000   0.200   0.000    0.00
  15.250   12.49   11.63    1.92   0.000   0.200   0.000    0.00
  15.300   12.37   11.68    0.87   0.000   0.200   0.000    0.00
  15.350   12.77   11.35    0.46   0.000   0.200   0.000    0.00
  15.400   12.51   11.14   -0.26   0.000   0.200   0.000    0.00
  15.450   12.78   13.83   -0.28   0.000   0.200   0.000    0.00
  15.500   13.13   16.71    0.86   0.000   0.200   0.000    0.00
  15.550   12.83   16.50    0.42   0.000   0.200   0.000    0.00
  15.600   12.84   10.69   -0.81   0.000   0.200   0.000    0.00
  15.650   13.37    8.58    0.13   0.000   0.200   0.000    0.00
  15.700   14.17    9.88    0.23   0.000   0.200   0.000    0.00
  15.750   15.02    8.19   -0.42   0.000   0.200   0.000    0.00
  15.800   14.83    0.91   -0.77   0.000   0.200   0.000    0.00
  15.850   15.44    3.16   -0.12   0.000   0.200   0.000    0.00
  15.900   16.04    3.11    0.12   0.000   0.200   0.000    0.00
  15.950   16.92   -0.15    0.48   0.000   0.200   0.000    0.00
  16.000   15.88    0.87   -0.18   0.000   0.200   0.000    0.00
  16.050   16.21   -0.38   -0.08   0.000   0.200   0.000    0.00
  16.100   16.73   -6.62   -0.95   0.000   0.200   0.000    0.00
  16.150   18.09   -6.08   -0.54   0.000   0.200   0.000    0.00
  16.200   18.47  -11.70   -0.26   0.000   0.200   0.000    0.00
  16.250   16.96  -10.17    1.41   0.000   0.200   0.000    0.00
  16.300   15.99   -5.55    1.10   0.000   0.200   0.000    0.00
  16.350   16.05   -0.78   -0.26   0.000   0.200   0.000    0.00
  16.400   17.26   -1.37   -0.68   0.000   0.200   0.000    0.00
  16.450   16.80   -7.31    0.29   0.000   0.200   0.000    0.00
  16.500   16.93   -4.87   -0.43   0.000   0.200   0.000    0.00
  16.550   16.22   -2.49   -1.37   0.000   0.200   0.000    0.00
  16.600   16.39    0.54   -0.53   0.000   0.200   0.000    0.00
  16.650   17.24    0.03   -0.36   0.000   0.200   0.000    0.00
  16.700   16.87   -0.16   -0.99   0.000   0.200   0.000    0.00
  16.750   17.41   -0.07   -1.70   0.000   0.200   0.000    0.00
  16.800   17.62    1.96   -1.00   0.000   0.200   0.000    0.00
  16.850   16.15    2.98    0.16   0.000   0.200   0.000    0.00
  16.900   15.71    0.98    0.98   0.000   0.200   0.000    0.00
  16.950   15.21    2.99   -0.61   0.000   0.200   0.000    0.00
  17.000   15.31   -0.43   -1.96   0.000   0.200   0.000    0.00
  17.050   15.55    5.31   -1.65   0.000   0.200   0.000    0.00
  17.100   15.47    1.29   -0.96   0.000   0.200   0.000    0.00
  17.150   15.38   -1.99   -1.02   0.000   0.200   0.000    0.00
  17.200   15.53   -0.85   -1.35   0.000   0.200   0.000    0.00
  17.250   15.70   -4.03   -1.43   0.000   0.200   0.000    0.00
  17.300   15.07   -7.35   -0.30   0.000   0.200   0.000    0.00
  17.350   15.25   -7.45    0.00   0.000   0.200   0.000    0.00
  17.400   14.75   -6.58    0.28   0.000   0.200   0.000    0.00
  17.450   15.36   -7.04    0.31   0.000   0.200   0.000    0.00
  17.500   14.99   -8.95    0.44   0.000   0.200   0.000    0.00
  17.550   14.06   -7.71    0.65   0.000   0.200   0.000    0.00
  17.600   14.63   -6.32   -0.17   0.000   0.200   0.000    0.00
  17.650   14.79   -8.39    0.66   0.000   0.200   0.000    0.00
  17.700   15.20   -7.48    0.28   0.000   0.200   0.000    0.00
  17.750   15.45   -9.39    0.27   0.000   0.200   0.000    0.00
  17.800   15.51  -12.81   -0.01   0.000   0.200   0.000    0.00
  17.850   14.73  -17.22    0.32   0.000   0.200   0.000    0.00
  17.900   14.56  -15.86   -0.55   0.000   0.200   0.000    0.00
  17.950   13.94  -12.49    0.56   0.000   0.200   0.000    0.00
  18.000   14.14  -12.24    0.18   0.000   0.200   0.000    0.00
  18.050   13.63  -13.91    0.71   0.000   0.200   0.000    0.00
  18.100   12.81  -10.29    0.70   0.000   0.200   0.000    0.00
  18.150   12.03   -8.64   -0.55   0.000   0.200   0.000    0.00
  18.200   12.54  -10.53   -0.74   0.000   0.200   0.000    0.00
  18.250   13.00   -3.77   -1.55   0.000   0.200   0.000    0.00
  18.300   12.82   -6.15   -1.55   0.000   0.200   0.000    0.00
  18.350   13.78   -2.87   -2.31   0.000   0.200   0.000    0.00
  18.400   13.42   -1.96   -1.96   0.000   0.200   0.000    0.00
  18.450   13.47    1.51   -1.69   0.000   0.200   0.000    0.00
  18.500   13.49   -1.60   -1.06   0.000   0.200   0.000    0.00
  18.550   13.65    3.10   -0.99   0.000   0.200   0.000    0.00
  18.600   12.79   -0.39    0.40   0.000   0.200   0.000    0.00
  18.650   13.21   -6.09    0.64   0.000   0.200   0.000    0.00
  18.700   13.82   -5.83   -0.45   0.000   0.200   0.000    0.00
  18.750   14.21   -8.36    0.64   0.000   0.200   0.000    0.00
  18.800   13.38   -8.00    1.80   0.000   0.200   0.000    0.00
  18.850   13.17  -11.76    1.81   0.000   0.200   0.000    0.00
  18.900   14.06  -11.39    0.98   0.000   0.200   0.000    0.00
  18.950   14.64   -9.98    0.46   0.000   0.200   0.000    0.00
  19.000   14.97   -8.48    0.45   0.000   0.200   0.000    0.00
  19.050   14.51  -10.48    0.00   0.000   0.200   0.000    0.00
  19.100   13.99  -10.24    0.16   0.000   0.200   0.000    0.00
  19.150   14.26   -5.07    0.03   0.000   0.200   0.000    0.00
  19.200   13.20  -12.66    1.15   0.000   0.200   0.000    0.00
  19.250   13.37  -10.01    0.85   0.000   0.200   0.000    0.00
  19.300   13.73   -8.95    0.54   0.000   0.200   0.000    0.00
  19.350   14.31   -7.15    0.52   0.000   0.200   0.000    0.00
  19.400   14.58   -6.36    1.42   0.000   0.200   0.000    0.00
  19.450   14.36   -6.71    2.08   0.000   0.200   0.000    0.00
  19.500   13.85   -5.56    0.95   0.000   0.200   0.000    0.00
  19.550   13.92   -5.64   -0.24   0.000   0.200   0.000    0.00
  19.600   13.55   -4.38   -0.13   0.000   0.200   0.000    0.00
  19.650   13.04   -2.90    0.06   0.000   0.200   0.000    0.00
  19.700   13.62   -6.87    0.78   0.000   0.200   0.000    0.00
  19.750   12.94   -6.38   -0.08   0.000   0.200   0.000    0.00
  19.800   13.42  -10.29   -0.15   0.000   0.200   0.000    0.00
  19.850   13.04   -8.85   -0.15   0.000   0.200   0.000    0.00
  19.900   12.86   -7.82    0.29   0.000   0.200   0.000    0.00
  19.950   12.71  -14.02    0.13   0.000   0.200   0.000    0.00
  20.000   12.77  -14.40    0.40   0.000   0.200   0.000    0.00
  20.050   11.51  -17.57   -0.57   0.000   0.200   0.000    0.00
  20.100   11.00  -18.83   -1.31   0.000   0.200   0.000    0.00
  20.150   11.39  -21.63   -1.00   0.000   0.200   0.000    0.00
  20.200   12.27  -18.37   -1.84   0.000   0.200   0.000    0.00
  20.250   12.55  -19.83   -1.31   0.000   0.200   0.000    0.00
  20.300   12.64  -19.93   -1.11   0.000   0.200   0.000    0.00
  20.350   13.23  -19.91   -1.87   0.000   0.200   0.000    0.00
  20.400   13.60  -18.28   -1.36   0.000   0.200   0.000    0.00
  20.450   13.41  -12.14    0.09   0.000   0.200   0.000    0.00
  20.500   13.71  -11.57   -1.65   0.000   0.200   0.000    0.00
  20.550   14.04  -12.33   -0.89   0.000   0.200   0.000    0.00
  20.600   15.28  -13.62   -1.68   0.000   0.200   0.000    0.00
  20.650   13.98  -14.13   -1.53   0.000   0.200   0.000    0.00
  20.700   13.80  -15.09   -0.34   0.000   0.200   0.000    0.00
  20.750   13.37  -10.31   -0.82   0.000   0.200   0.000    0.00
  20.800   14.04  -11.20   -1.36   0.000   0.200   0.000    0.00
  20.850   13.66  -11.52   -1.57   0.000   0.200   0.000    0.00
  20.900   14.66  -13.86   -2.05   0.000   0.200   0.000    0.00
  20.950   13.08  -12.42   -2.91   0.000   0.200   0.000    0.00
  21.000   12.57   -9.78   -1.90   0.000   0.200   0.000    0.00
  21.050   11.71  -10.58   -1.28   0.000   0.200   0.000    0.00
  21.100   12.37   -9.93   -0.67   0.000   0.200   0.000    0.00
  21.150   12.82  -12.50   -0.57   0.000   0.200   0.000    0.00
  21.200   12.38  -17.86   -1.42   0.000   0.200   0.000    0.00
  21.250   13.31  -21.29   -0.43   0.000   0.200   0.000    0.00
  21.300   13.12  -17.91   -1.07   0.000   0.200   0.000    0.00
  21.350   14.06  -15.35   -0.32   0.000   0.200   0.000    0.00
  21.400   14.66  -11.44   -0.54   0.000   0.200   0.000    0.00
  21.450   14.00   -8.82   -1.30   0.000   0.200   0.000    0.00
  21.500   14.60   -8.37   -2.17   0.000   0.200   0.000    0.00
  21.550   15.70  -12.28   -1.67   0.000   0.200   0.000    0.00
  21.600   15.24  -10.79   -1.51   0.000   0.200   0.000    0.00
  21.650   15.73   -4.27   -1.88   0.000   0.200   0.000    0.00
  21.700   14.90   -3.24   -1.71   0.000   0.200   0.000    0.00
  21.750   13.37   -3.58   -0.24   0.000   0.200   0.000    0.00
  21.800   13.37   -0.80    0.85   0.000   0.200   0.000    0.00
  21.850   14.62   -2.81    1.10   0.000   0.200   0.000    0.00
  21.900   14.84   -4.70    1.21   0.000   0.200   0.000    0.00
  21.950   13.78    0.48    0.84   0.000   0.200   0.000    0.00
  22.000   13.88    6.71    0.67   0.000   0.200   0.000    0.00
  22.050   14.45    1.79    0.47   0.000   0.200   0.000    0.00
  22.100   14.66   -2.16    0.38   0.000   0.200   0.000    0.00
  22.150   15.13   -2.40    0.95   0.000   0.200   0.000    0.00
  22.200   15.92   -1.64    0.03   0.000   0.200   0.000    0.00
  22.250   16.82    4.15    0.39   0.000   0.200   0.000    0.00
  22.300   16.38    2.75    1.11   0.000   0.200   0.000    0.00
  22.350   15.85    2.16    1.10   0.000   0.200   0.000    0.00