! This hub-height wind-speed file was generated by TurbSim (v1.06.00, 21-Sep-2012) on 16-Jun-2018 at 18:34:47.
!
! The requested statistics for this data were:
!    Mean Total Wind Speed =   17.000 m/s
!    Turbulence Intensity  =   15.112%
!
!   Time  HorSpd  WndDir  VerSpd  HorShr  VerShr  LnVShr  GstSpd
!  (sec)   (m/s)   (deg)   (m/s)     (-)     (-)     (-)   (m/s)
   0.000   19.27   18.08   -0.42   0.000   0.200   0.000    0.00
   0.050   19.95   18.68   -0.64   0.000   0.200   0.000    0.00
   0.100   19.35   14.19   -0.65   0.000   0.200   0.000    0.00
   0.150   19.59   14.72   -0.35   0.000   0.200   0.000    0.00
   0.200   20.46   16.03    0.10   0.000   0.200   0.000    0.00
   0.250   20.66   12.78   -0.17   0.000   0.200   0.000    0.00
   0.300   20.49   12.21   -0.22   0.000   0.200   0.000    0.00
   0.350   20.90    9.88    0.14   0.000   0.200   0.000    0.00
   0.400   22.03   10.95    0.33   0.000   0.200   0.000    0.00
   0.450   21.85    9.46    0.54   0.000   0.200   0.000    0.00
   0.500   21.54    7.44    1.19   0.000   0.200   0.000    0.00
   0.550   20.99   10.54    1.44   0.000   0.200   0.000    0.00
   0.600   20.92   10.53    1.27   0.000   0.200   0.000    0.00
   0.650   20.73   10.38    0.21   0.000   0.200   0.000    0.00
   0.700   21.29   12.51   -0.65   0.000   0.200   0.000    0.00
   0.750   22.05   14.34   -0.43   0.000   0.200   0.000    0.00
   0.800   22.31   13.34   -1.57   0.000   0.200   0.000    0.00
   0.850   21.62   14.25   -2.01   0.000   0.200   0.000    0.00
   0.900   20.36   11.50   -2.61   0.000   0.200   0.000    0.00
   0.950   19.48   11.99   -1.81   0.000   0.200   0.000    0.00
   1.000   20.33   11.07   -0.99   0.000   0.200   0.000    0.00
   1.050   20.07   10.73   -1.64   0.000   0.200   0.000    0.00
   1.100   19.70   11.86   -1.71   0.000   0.200   0.000    0.00
   1.150   19.88   10.14   -2.10   0.000   0.200   0.000    0.00
   1.200   20.04   10.19   -1.86   0.000   0.200   0.000    0.00
   1.250   19.99    9.27   -2.62   0.000   0.200   0.000    0.00
   1.300   20.16   10.04   -2.16   0.000   0.200   0.000    0.00
   1.350   19.60   10.14   -1.64   0.000   0.200   0.000    0.00
   1.400   19.57   10.05   -1.05   0.000   0.200   0.000    0.00
   1.450   20.21    9.97   -1.44   0.000   0.200   0.000    0.00
   1.500   20.10    9.01   -1.50   0.000   0.200   0.000    0.00
   1.550   20.55   11.38   -1.40   0.000   0.200   0.000    0.00
   1.600   20.36   10.41   -1.34   0.000   0.200   0.000    0.00
   1.650   19.86   12.16   -2.42   0.000   0.200   0.000    0.00
   1.700   19.75   13.66   -1.85   0.000   0.200   0.000    0.00
   1.750   19.48   13.57   -1.80   0.000   0.200   0.000    0.00
   1.800   19.64   13.07   -1.45   0.000   0.200   0.000    0.00
   1.850   19.66   10.18   -1.71   0.000   0.200   0.000    0.00
   1.900   19.11    8.31   -2.36   0.000   0.200   0.000    0.00
   1.950   19.41    9.18   -1.68   0.000   0.200   0.000    0.00
   2.000   19.23    9.22   -1.29   0.000   0.200   0.000    0.00
   2.050   18.90    9.89   -0.52   0.000   0.200   0.000    0.00
   2.100   18.31    8.98    0.10   0.000   0.200   0.000    0.00
   2.150   18.57   10.41    0.72   0.000   0.200   0.000    0.00
   2.200   17.73    8.58    1.21   0.000   0.200   0.000    0.00
   2.250   18.00    8.86    2.02   0.000   0.200   0.000    0.00
   2.300   18.16    8.58    1.02   0.000   0.200   0.000    0.00
   2.350   17.97    9.19    1.31   0.000   0.200   0.000    0.00
   2.400   18.99    8.09    1.59   0.000   0.200   0.000    0.00
   2.450   18.86    9.63    1.82   0.000   0.200   0.000    0.00
   2.500   18.49    8.37    1.48   0.000   0.200   0.000    0.00
   2.550   18.43    8.30    0.72   0.000   0.200   0.000    0.00
   2.600   18.21    6.52    1.16   0.000   0.200   0.000    0.00
   2.650   18.19    5.91    0.42   0.000   0.200   0.000    0.00
   2.700   18.86    6.24    0.01   0.000   0.200   0.000    0.00
   2.750   18.44    6.45    0.94   0.000   0.200   0.000    0.00
   2.800   17.04    4.45    0.13   0.000   0.200   0.000    0.00
   2.850   17.24    1.38   -0.30   0.000   0.200   0.000    0.00
   2.900   17.23    1.11   -0.42   0.000   0.200   0.000    0.00
   2.950   18.19   -0.02   -0.01   0.000   0.200   0.000    0.00
   3.000   18.76   -1.23    0.55   0.000   0.200   0.000    0.00
   3.050   18.62   -1.97    0.76   0.000   0.200   0.000    0.00
   3.100   18.73   -2.22    1.80   0.000   0.200   0.000    0.00
   3.150   19.05   -1.59    1.21   0.000   0.200   0.000    0.00
   3.200   18.89   -1.15    0.94   0.000   0.200   0.000    0.00
   3.250   17.93   -4.00    1.83   0.000   0.200   0.000    0.00
   3.300   17.54   -3.85    2.71   0.000   0.200   0.000    0.00
   3.350   17.30   -3.08    2.15   0.000   0.200   0.000    0.00
   3.400   17.19   -2.02    1.59   0.000   0.200   0.000    0.00
   3.450   17.40   -2.70    1.35   0.000   0.200   0.000    0.00
   3.500   16.84   -0.74    0.63   0.000   0.200   0.000    0.00
   3.550   16.74   -3.04    1.23   0.000   0.200   0.000    0.00
   3.600   16.49   -1.86    0.43   0.000   0.200   0.000    0.00
   3.650   17.34   -1.27    0.78   0.000   0.200   0.000    0.00
   3.700   17.14   -2.01    1.19   0.000   0.200   0.000    0.00
   3.750   17.17   -2.92    1.47   0.000   0.200   0.000    0.00
   3.800   18.41   -2.97    1.06   0.000   0.200   0.000    0.00
   3.850   18.81   -0.99    0.43   0.000   0.200   0.000    0.00
   3.900   18.79   -0.47   -0.59   0.000   0.200   0.000    0.00
   3.950   18.55   -2.07   -1.06   0.000   0.200   0.000    0.00
   4.000   18.32   -1.53   -0.41   0.000   0.200   0.000    0.00
   4.050   18.08    0.31   -0.65   0.000   0.200   0.000    0.00
   4.100   17.65   -2.52   -1.77   0.000   0.200   0.000    0.00
   4.150   17.54   -1.98   -1.48   0.000   0.200   0.000    0.00
   4.200   17.22    0.09   -1.72   0.000   0.200   0.000    0.00
   4.250   16.78    0.51   -2.25   0.000   0.200   0.000    0.00
   4.300   16.96   -0.82   -1.22   0.000   0.200   0.000    0.00
   4.350   16.59   -3.37   -0.33   0.000   0.200   0.000    0.00
   4.400   17.40   -5.82   -0.29   0.000   0.200   0.000    0.00
   4.450   17.52   -5.87   -0.10   0.000   0.200   0.000    0.00
   4.500   16.58   -4.45   -0.30   0.000   0.200   0.000    0.00
   4.550   16.61   -1.62    0.68   0.000   0.200   0.000    0.00
   4.600   16.61   -1.17    0.25   0.000   0.200   0.000    0.00
   4.650   16.66   -1.08    0.24   0.000   0.200   0.000    0.00
   4.700   17.18   -1.91    0.01   0.000   0.200   0.000    0.00
   4.750   16.91   -1.22   -0.46   0.000   0.200   0.000    0.00
   4.800   16.64   -0.60    0.07   0.000   0.200   0.000    0.00
   4.850   16.93    0.38   -0.41   0.000   0.200   0.000    0.00
   4.900   17.34    0.30   -0.65   0.000   0.200   0.000    0.00
   4.950   17.94    3.12   -0.37   0.000   0.200   0.000    0.00
   5.000   17.41    2.71   -0.95   0.000   0.200   0.000    0.00
   5.050   17.55    6.08   -0.98   0.000   0.200   0.000    0.00
   5.100   17.56    5.58   -2.17   0.000   0.200   0.000    0.00
   5.150   18.06    2.17   -2.17   0.000   0.200   0.000    0.00
   5.200   17.84    1.94   -2.36   0.000   0.200   0.000    0.00
   5.250   18.00    4.56   -2.12   0.000   0.200   0.000    0.00
   5.300   18.17    4.26   -1.52   0.000   0.200   0.000    0.00
   5.350   18.62    2.96   -1.19   0.000   0.200   0.000    0.00
   5.400   18.10    3.33   -0.87   0.000   0.200   0.000    0.00
   5.450   18.11    3.32   -1.26   0.000   0.200   0.000    0.00
   5.500   18.14    2.29   -1.29   0.000   0.200   0.000    0.00
   5.550   17.24    6.19   -2.16   0.000   0.200   0.000    0.00
   5.600   16.68    7.80   -2.24   0.000   0.200   0.000    0.00
   5.650   16.70    8.01   -2.22   0.000   0.200   0.000    0.00
   5.700   16.82    8.19   -0.87   0.000   0.200   0.000    0.00
   5.750   16.55    9.80   -0.12   0.000   0.200   0.000    0.00
   5.800   16.66    9.94   -0.68   0.000   0.200   0.000    0.00
   5.850   16.87   12.15   -0.41   0.000   0.200   0.000    0.00
   5.900   17.21   14.60   -0.37   0.000   0.200   0.000    0.00
   5.950   17.29   14.74   -0.31   0.000   0.200   0.000    0.00
   6.000   17.13   16.47    0.22   0.000   0.200   0.000    0.00
   6.050   17.64   18.62   -0.26   0.000   0.200   0.000    0.00
   6.100   17.28   16.81   -0.47   0.000   0.200   0.000    0.00
   6.150   17.34   13.32   -0.22   0.000   0.200   0.000    0.00
   6.200   17.09   11.32   -0.52   0.000   0.200   0.000    0.00
   6.250   16.98   10.00   -0.53   0.000   0.200   0.000    0.00
   6.300   16.62   11.59   -0.09   0.000   0.200   0.000    0.00
   6.350   16.40   13.24   -0.41   0.000   0.200   0.000    0.00
   6.400   16.79   13.73   -0.24   0.000   0.200   0.000    0.00
   6.450   16.78   11.49   -0.41   0.000   0.200   0.000    0.00
   6.500   17.50   11.68   -0.64   0.000   0.200   0.000    0.00
   6.550   16.64    9.95   -1.19   0.000   0.200   0.000    0.00
   6.600   17.43   10.06   -0.78   0.000   0.200   0.000    0.00
   6.650   17.49    8.93   -0.81   0.000   0.200   0.000    0.00
   6.700   16.89    8.14   -1.53   0.000   0.200   0.000    0.00
   6.750   16.61   10.86   -0.40   0.000   0.200   0.000    0.00
   6.800   16.47    7.67   -0.43   0.000   0.200   0.000    0.00
   6.850   16.82    8.45   -0.34   0.000   0.200   0.000    0.00
   6.900   17.24    9.65   -0.17   0.000   0.200   0.000    0.00
   6.950   17.20   11.96   -0.30   0.000   0.200   0.000    0.00
   7.000   17.51   13.54   -0.89   0.000   0.200   0.000    0.00
   7.050   17.57   14.55   -0.28   0.000   0.200   0.000    0.00
   7.100   17.95   14.44   -0.16   0.000   0.200   0.000    0.00
   7.150   18.02   14.08    0.41   0.000   0.200   0.000    0.00
   7.200   18.26   13.58    0.60   0.000   0.200   0.000    0.00
   7.250   18.10   13.11    0.29   0.000   0.200   0.000    0.00
   7.300   18.22   13.94   -0.16   0.000   0.200   0.000    0.00
   7.350   18.21   11.46    0.07   0.000   0.200   0.000    0.00
   7.400   17.18   13.57    0.00   0.000   0.200   0.000    0.00
   7.450   17.45   13.91   -0.96   0.000   0.200   0.000    0.00
   7.500   17.92   14.22   -0.42   0.000   0.200   0.000    0.00
   7.550   17.92   17.84   -0.32   0.000   0.200   0.000    0.00
   7.600   17.97   18.34   -1.13   0.000   0.200   0.000    0.00
   7.650   18.24   17.58   -0.64   0.000   0.200   0.000    0.00
   7.700   18.59   17.40   -0.50   0.000   0.200   0.000    0.00
   7.750   17.86   18.06   -0.38   0.000   0.200   0.000    0.00
   7.800   18.20   18.82   -0.39   0.000   0.200   0.000    0.00
   7.850   17.81   17.54   -1.63   0.000   0.200   0.000    0.00
   7.900   17.82   17.14   -1.72   0.000   0.200   0.000    0.00
   7.950   17.59   17.04   -1.22   0.000   0.200   0.000    0.00
   8.000   17.18   15.10   -1.32   0.000   0.200   0.000    0.00
   8.050   16.80   13.62   -1.41   0.000   0.200   0.000    0.00
   8.100   17.33   13.74   -1.59   0.000   0.200   0.000    0.00
   8.150   17.46   13.41   -1.20   0.000   0.200   0.000    0.00
   8.200   17.23   11.93   -1.04   0.000   0.200   0.000    0.00
   8.250   17.26   10.01   -0.97   0.000   0.200   0.000    0.00
   8.300   17.47   10.92   -1.03   0.000   0.200   0.000    0.00
   8.350   17.43   11.13   -1.25   0.000   0.200   0.000    0.00
   8.400   17.66   11.94   -1.50   0.000   0.200   0.000    0.00
   8.450   17.49    8.93   -2.23   0.000   0.200   0.000    0.00
   8.500   18.12    9.86   -1.81   0.000   0.200   0.000    0.00
   8.550   18.18    8.54   -1.45   0.000   0.200   0.000    0.00
   8.600   18.35    7.87    0.20   0.000   0.200   0.000    0.00
   8.650   19.34    7.34    0.59   0.000   0.200   0.000    0.00
   8.700   19.64    5.08    1.17   0.000   0.200   0.000    0.00
   8.750   19.79    5.53    1.30   0.000   0.200   0.000    0.00
   8.800   19.60    8.81    0.66   0.000   0.200   0.000    0.00
   8.850   19.61    8.90   -0.03   0.000   0.200   0.000    0.00
   8.900   20.07   11.47   -0.38   0.000   0.200   0.000    0.00
   8.950   20.03   11.01   -0.43   0.000   0.200   0.000    0.00
   9.000   20.03    9.79    0.34   0.000   0.200   0.000    0.00
   9.050   20.07    8.86   -0.18   0.000   0.200   0.000    0.00
   9.100   20.36    7.28   -0.36   0.000   0.200   0.000    0.00
   9.150   20.27    6.94    0.04   0.000   0.200   0.000    0.00
   9.200   19.89    6.27   -0.05   0.000   0.200   0.000    0.00
   9.250   19.55    8.34   -0.46   0.000   0.200   0.000    0.00
   9.300   19.25    6.08   -0.77   0.000   0.200   0.000    0.00
   9.350   19.13    3.89   -0.12   0.000   0.200   0.000    0.00
   9.400   19.11    1.93    0.38   0.000   0.200   0.000    0.00
   9.450   18.82    0.86   -0.14   0.000   0.200   0.000    0.00
   9.500   19.35    3.27   -0.27   0.000   0.200   0.000    0.00
   9.550   19.45    6.02   -0.43   0.000   0.200   0.000    0.00
   9.600   19.53    6.05   -1.15   0.000   0.200   0.000    0.00
   9.650   19.65    5.05   -0.66   0.000   0.200   0.000    0.00
   9.700   19.93    2.71   -0.63   0.000   0.200   0.000    0.00
   9.750   18.81    3.55   -1.33   0.000   0.200   0.000    0.00
   9.800   19.10    5.44   -1.04   0.000   0.200   0.000    0.00
   9.850   18.34    5.87   -0.95   0.000   0.200   0.000    0.00
   9.900   17.89    2.15   -1.33   0.000   0.200   0.000    0.00
   9.950   18.21    2.92   -1.67   0.000   0.200   0.000    0.00
  10.000   18.19    3.93   -0.94   0.000   0.200   0.000    0.00
  10.050   17.91    2.93   -0.18   0.000   0.200   0.000    0.00
  10.100   17.88    2.23   -0.91   0.000   0.200   0.000    0.00
  10.150   17.36    3.66   -1.24   0.000   0.200   0.000    0.00
  10.200   17.66    4.11   -1.96   0.000   0.200   0.000    0.00
  10.250   17.57    3.08   -1.48   0.000   0.200   0.000    0.00
  10.300   17.28    4.05   -0.71   0.000   0.200   0.000    0.00
  10.350   16.49    5.63   -0.66   0.000   0.200   0.000    0.00
  10.400   16.65    7.60   -0.31   0.000   0.200   0.000    0.00
  10.450   17.26    6.22   -0.91   0.000   0.200   0.000    0.00
  10.500   18.16    8.37   -1.09   0.000   0.200   0.000    0.00
  10.550   18.15    7.45   -2.16   0.000   0.200   0.000    0.00
  10.600   17.45    6.12   -0.93   0.000   0.200   0.000    0.00
  10.650   17.10    3.78    0.61   0.000   0.200   0.000    0.00
  10.700   17.27    3.32    0.64   0.000   0.200   0.000    0.00
  10.750   17.31    5.67    1.08   0.000   0.200   0.000    0.00
  10.800   17.04    4.67    0.61   0.000   0.200   0.000    0.00
  10.850   17.93    2.98    0.18   0.000   0.200   0.000    0.00
  10.900   18.30    4.38    0.33   0.000   0.200   0.000    0.00
  10.950   17.88    5.60    0.30   0.000   0.200   0.000    0.00
  11.000   17.16    4.64   -0.14   0.000   0.200   0.000    0.00
  11.050   16.88    5.31    0.16   0.000   0.200   0.000    0.00
  11.100   16.24    5.43    0.39   0.000   0.200   0.000    0.00
  11.150   16.49    5.54   -0.30   0.000   0.200   0.000    0.00
  11.200   16.56    5.22    0.17   0.000   0.200   0.000    0.00
  11.250   16.58    3.27    0.96   0.000   0.200   0.000    0.00
  11.300   16.80    1.89    1.37   0.000   0.200   0.000    0.00
  11.350   16.43    3.88    1.45   0.000   0.200   0.000    0.00
  11.400   15.73    4.02    2.07   0.000   0.200   0.000    0.00
  11.450   15.78    4.15    1.51   0.000   0.200   0.000    0.00
  11.500   16.27    3.96    1.37   0.000   0.200   0.000    0.00
  11.550   16.40    2.32    0.97   0.000   0.200   0.000    0.00
  11.600   16.62    3.14    1.12   0.000   0.200   0.000    0.00
  11.650   16.91    4.46    1.78   0.000   0.200   0.000    0.00
  11.700   16.84    5.50    0.83   0.000   0.200   0.000    0.00
  11.750   16.27    4.57    0.64   0.000   0.200   0.000    0.00
  11.800   16.08    5.05    0.23   0.000   0.200   0.000    0.00
  11.850   15.35    6.85   -0.18   0.000   0.200   0.000    0.00
  11.900   14.90    4.76    0.13   0.000   0.200   0.000    0.00
  11.950   14.95    5.66   -0.78   0.000   0.200   0.000    0.00
  12.000   15.23    5.37   -0.56   0.000   0.200   0.000    0.00
  12.050   15.15    4.04   -1.13   0.000   0.200   0.000    0.00
  12.100   13.99    2.86   -0.78   0.000   0.200   0.000    0.00
  12.150   14.47    1.67   -1.10   0.000   0.200   0.000    0.00
  12.200   14.55    1.76   -0.35   0.000   0.200   0.000    0.00
  12.250   14.51   -0.29   -0.73   0.000   0.200   0.000    0.00
  12.300   14.22    2.50   -0.81   0.000   0.200   0.000    0.00
  12.350   13.55    3.43   -0.56   0.000   0.200   0.000    0.00
  12.400   14.27    6.24    0.26   0.000   0.200   0.000    0.00
  12.450   14.26    3.65   -1.04   0.000   0.200   0.000    0.00
  12.500   13.74    3.85   -1.78   0.000   0.200   0.000    0.00
  12.550   13.18    5.23   -1.02   0.000   0.200   0.000    0.00
  12.600   13.77    4.04   -1.19   0.000   0.200   0.000    0.00
  12.650   14.08    2.87   -0.96   0.000   0.200   0.000    0.00
  12.700   15.08    2.31   -0.34   0.000   0.200   0.000    0.00
  12.750   15.29    4.11   -0.53   0.000   0.200   0.000    0.00
  12.800   14.84    7.91   -0.31   0.000   0.200   0.000    0.00
  12.850   15.09    7.02   -0.71   0.000   0.200   0.000    0.00
  12.900   14.45    8.30   -0.58   0.000   0.200   0.000    0.00
  12.950   13.92   11.58   -0.66   0.000   0.200   0.000    0.00
  13.000   14.34   10.88   -0.20   0.000   0.200   0.000    0.00
  13.050   13.82    9.07   -0.48   0.000   0.200   0.000    0.00
  13.100   14.74    9.06    0.05   0.000   0.200   0.000    0.00
  13.150   14.86    6.42    0.56   0.000   0.200   0.000    0.00
  13.200   15.52    5.61    0.38   0.000   0.200   0.000    0.00
  13.250   15.60    3.10    0.56   0.000   0.200   0.000    0.00
  13.300   15.71    1.51    0.68   0.000   0.200   0.000    0.00
  13.350   15.79    1.58    1.14   0.000   0.200   0.000    0.00
  13.400   15.18    0.51    0.46   0.000   0.200   0.000    0.00
  13.450   15.12    2.80    0.51   0.000   0.200   0.000    0.00
  13.500   15.43    7.17   -0.34   0.000   0.200   0.000    0.00
  13.550   15.80    6.70   -0.12   0.000   0.200   0.000    0.00
  13.600   15.63    8.23    0.19   0.000   0.200   0.000    0.00
  13.650   16.33    6.99    0.21   0.000   0.200   0.000    0.00
  13.700   16.82    9.56   -0.18   0.000   0.200   0.000    0.00
  13.750   16.34    6.28   -0.38   0.000   0.200   0.000    0.00
  13.800   16.28    7.23   -0.04   0.000   0.200   0.000    0.00
  13.850   15.73    7.56   -0.07   0.000   0.200   0.000    0.00
  13.900   15.86    1.84    0.02   0.000   0.200   0.000    0.00
  13.950   15.81    1.45    0.49   0.000   0.200   0.000    0.00
  14.000   15.05    0.54    0.49   0.000   0.200   0.000    0.00
  14.050   15.42   -0.11    0.52   0.000   0.200   0.000    0.00
  14.100   15.30   -1.89    0.92   0.000   0.200   0.000    0.00
  14.150   15.34   -1.95   -0.04   0.000   0.200   0.000    0.00
  14.200   15.28   -1.32    0.53   0.000   0.200   0.000    0.00
  14.250   15.17   -2.98    0.99   0.000   0.200   0.000    0.00
  14.300   15.57    1.26    1.21   0.000   0.200   0.000    0.00
  14.350   15.27    3.13    1.27   0.000   0.200   0.000    0.00
  14.400   15.36    1.94    1.63   0.000   0.200   0.000    0.00
  14.450   14.77    2.59    0.97   0.000   0.200   0.000    0.00
  14.500   14.81    5.87    0.33   0.000   0.200   0.000    0.00
  14.550   14.09    8.20    0.45   0.000   0.200   0.000    0.00
  14.600   13.92    6.01    0.76   0.000   0.200   0.000    0.00
  14.650   13.97    5.74    0.35   0.000   0.200   0.000    0.00
  14.700   14.52    6.83   -0.14   0.000   0.200   0.000    0.00
  14.750   15.13    3.63    0.68   0.000   0.200   0.000    0.00
  14.800   15.31    3.97    1.04   0.000   0.200   0.000    0.00
  14.850   15.37    7.67    1.12   0.000   0.200   0.000    0.00
  14.900   15.40    5.47    0.40   0.000   0.200   0.000    0.00
  14.950   15.75    5.83    0.42   0.000   0.200   0.000    0.00
  15.000   16.28    8.48    0.14   0.000   0.200   0.000    0.00
  15.050   15.58    9.48    0.17   0.000   0.200   0.000    0.00
  15.100   15.10   15.64    0.89   0.000   0.200   0.000    0.00
  15.150   14.81   13.32    0.38   0.000   0.200   0.000    0.00
  15.200   14.43   12.74    0.32   0.000   0.200   0.000    0.00
  15.250   14.65    7.26   -0.25   0.000   0.200   0.000    0.00
  15.300   14.97    5.55   -0.37   0.000   0.200   0.000    0.00
  15.350   14.42    6.82    0.16   0.000   0.200   0.000    0.00
  15.400   14.97    9.67    0.20   0.000   0.200   0.000    0.00
  15.450   15.19   13.65   -0.03   0.000   0.200   0.000    0.00
  15.500   15.51   15.56   -0.85   0.000   0.200   0.000    0.00
  15.550   15.45   14.56    0.12   0.000   0.200   0.000    0.00
  15.600   15.56   13.00    0.15   0.000   0.200   0.000    0.00
  15.650   14.81    9.08   -0.11   0.000   0.200   0.000    0.00
  15.700   14.47    8.97   -0.73   0.000   0.200   0.000    0.00
  15.750   14.75    6.37   -1.48   0.000   0.200   0.000    0.00
  15.800   14.59    6.60   -0.63   0.000   0.200   0.000    0.00
  15.850   14.89    8.18    0.31   0.000   0.200   0.000    0.00
  15.900   14.79   10.95    0.23   0.000   0.200   0.000    0.00
  15.950   15.44   12.57    0.50   0.000   0.200   0.000    0.00
  16.000   16.07   10.64    1.08   0.000   0.200   0.000    0.00
  16.050   15.59    9.73    1.08   0.000   0.200   0.000    0.00
  16.100   15.43    8.94    1.09   0.000   0.200   0.000    0.00
  16.150   15.20    8.13    0.89   0.000   0.200   0.000    0.00
  16.200   14.48    6.30    1.22   0.000   0.200   0.000    0.00
  16.250   14.05    5.40    1.26   0.000   0.200   0.000    0.00
  16.300   13.24    7.74    1.86   0.000   0.200   0.000    0.00
  16.350   13.41   12.38    1.02   0.000   0.200   0.000    0.00
  16.400   13.38   17.17    1.12   0.000   0.200   0.000    0.00
  16.450   13.92   13.98    0.80   0.000   0.200   0.000    0.00
  16.500   13.70   12.48    0.23   0.000   0.200   0.000    0.00
  16.550   13.63   14.66    1.24   0.000   0.200   0.000    0.00
  16.600   13.66   13.14    0.70   0.000   0.200   0.000    0.00
  16.650   14.06   14.09    0.60   0.000   0.200   0.000    0.00
  16.700   13.43   16.23    0.95   0.000   0.200   0.000    0.00
  16.750   13.84   13.95    1.10   0.000   0.200   0.000    0.00
  16.800   13.76   16.23    1.08   0.000   0.200   0.000    0.00
  16.850   14.12   15.73    0.93   0.000   0.200   0.000    0.00
  16.900   14.05   11.57    1.54   0.000   0.200   0.000    0.00
  16.950   14.14    5.58    2.03   0.000   0.200   0.000    0.00
  17.000   14.77    7.31    2.16   0.000   0.200   0.000    0.00
  17.050   14.62    5.59    1.62   0.000   0.200   0.000    0.00
  17.100   14.59    3.38    1.24   0.000   0.200   0.000    0.00
  17.150   15.04    3.92    1.26   0.000   0.200   0.000    0.00
  17.200   14.61    8.60    1.49   0.000   0.200   0.000    0.00
  17.250   14.52   10.05    2.29   0.000   0.200   0.000    0.00
  17.300   15.36    8.86    2.76   0.000   0.200   0.000    0.00
  17.350   16.03    8.79    2.89   0.000   0.200   0.000    0.00
  17.400   16.42    7.72    3.22   0.000   0.200   0.000    0.00
  17.450   16.96    5.28    2.46   0.000   0.200   0.000    0.00
  17.500   17.49    5.74    2.17   0.000   0.200   0.000    0.00
  17.550   16.48    6.34    1.73   0.000   0.200   0.000    0.00
  17.600   16.46    6.59    1.17   0.000   0.200   0.000    0.00
  17.650   17.26    8.86    1.22   0.000   0.200   0.000    0.00
  17.700   17.31   10.77    1.72   0.000   0.200   0.000    0.00
  17.750   16.77   11.11    2.10   0.000   0.200   0.000    0.00
  17.800   16.14   11.26    1.84   0.000   0.200   0.000    0.00
  17.850   16.21   12.13    1.05   0.000   0.200   0.000    0.00
  17.900   16.41   10.21    0.96   0.000   0.200   0.000    0.00
  17.950   17.03    6.85    1.05   0.000   0.200   0.000    0.00
  18.000   16.53    7.78    0.97   0.000   0.200   0.000    0.00
  18.050   15.97    6.49    1.23   0.000   0.200   0.000    0.00
  18.100   16.00    9.86    1.45   0.000   0.200   0.000    0.00
  18.150   16.17    9.42    1.84   0.000   0.200   0.000    0.00
  18.200   15.98   11.36    1.37   0.000   0.200   0.000    0.00
  18.250   15.49   11.48    1.73   0.000   0.200   0.000    0.00
  18.300   15.56    9.99    1.75   0.000   0.200   0.000    0.00
  18.350   16.06   11.60    2.04   0.000   0.200   0.000    0.00
  18.400   16.49   11.63    2.18   0.000   0.200   0.000    0.00
  18.450   16.73   13.32    2.39   0.000   0.200   0.000    0.00
  18.500   16.99   13.45    1.90   0.000   0.200   0.000    0.00
  18.550   17.18   13.96    1.72   0.000   0.200   0.000    0.00
  18.600   17.29   12.54    2.18   0.000   0.200   0.000    0.00
  18.650   16.77   10.23    1.61   0.000   0.200   0.000    0.00
  18.700   17.11   11.18    1.70   0.000   0.200   0.000    0.00
  18.750   17.15   10.74    2.36   0.000   0.200   0.000    0.00
  18.800   16.49   12.09    1.51   0.000   0.200   0.000    0.00
  18.850   16.61   12.93    1.13   0.000   0.200   0.000    0.00
  18.900   16.14   14.70    0.56   0.000   0.200   0.000    0.00
  18.950   16.39   16.44    0.65   0.000   0.200   0.000    0.00
  19.000   17.32   14.07    0.39   0.000   0.200   0.000    0.00
  19.050   17.15   12.74    1.89   0.000   0.200   0.000    0.00
  19.100   17.51   12.04    2.75   0.000   0.200   0.000    0.00
  19.150   17.17    9.35    2.53   0.000   0.200   0.000    0.00
  19.200   16.75    9.34    3.06   0.000   0.200   0.000    0.00
  19.250   16.60    9.94    3.36   0.000   0.200   0.000    0.00
  19.300   16.74   12.37    3.36   0.000   0.200   0.000    0.00
  19.350   17.41   14.99    3.49   0.000   0.200   0.000    0.00
  19.400   17.19   14.75    3.34   0.000   0.200   0.000    0.00
  19.450   15.96   17.52    2.84   0.000   0.200   0.000    0.00
  19.500   15.65   18.84    2.48   0.000   0.200   0.000    0.00
  19.550   16.58   18.98    2.19   0.000   0.200   0.000    0.00
  19.600   16.61   19.45    1.75   0.000   0.200   0.000    0.00
  19.650   16.55   21.07    2.07   0.000   0.200   0.000    0.00
  19.700   15.51   18.94    1.95   0.000   0.200   0.000    0.00
  19.750   15.55   18.56    2.43   0.000   0.200   0.000    0.00
  19.800   15.08   16.56    2.26   0.000   0.200   0.000    0.00
  19.850   15.33   12.60    2.66   0.000   0.200   0.000    0.00
  19.900   15.13   12.40    2.97   0.000   0.200   0.000    0.00
  19.950   15.39    9.91    2.27   0.000   0.200   0.000    0.00
  20.000   15.29    9.23    2.13   0.000   0.200   0.000    0.00
  20.050   14.98   10.07    1.30   0.000   0.200   0.000    0.00
  20.100   15.17   10.77    1.28   0.000   0.200   0.000    0.00
  20.150   15.30   12.35    1.75   0.000   0.200   0.000    0.00
  20.200   15.15   16.44    0.83   0.000   0.200   0.000    0.00
  20.250   15.20   16.27    0.88   0.000   0.200   0.000    0.00
  20.300   15.12   17.74    0.72   0.000   0.200   0.000    0.00
  20.350   15.68   19.45    0.16   0.000   0.200   0.000    0.00
  20.400   15.48   16.78   -0.20   0.000   0.200   0.000    0.00
  20.450   15.81   18.75    0.35   0.000   0.200   0.000    0.00
  20.500   16.59   16.31    0.23   0.000   0.200   0.000    0.00
  20.550   16.37   11.18   -0.01   0.000   0.200   0.000    0.00
  20.600   15.80    9.98   -0.18   0.000   0.200   0.000    0.00
  20.650   15.68    8.16    0.24   0.000   0.200   0.000    0.00
  20.700   15.14    7.83    0.06   0.000   0.200   0.000    0.00
  20.750   14.21    8.10    0.02   0.000   0.200   0.000    0.00
  20.800   14.81    7.45   -0.64   0.000   0.200   0.000    0.00
  20.850   15.14    7.59    0.27   0.000   0.200   0.000    0.00
  20.900   15.18    8.88    0.59   0.000   0.200   0.000    0.00
  20.950   15.46    8.46    0.33   0.000   0.200   0.000    0.00
  21.000   16.03   10.39    0.59   0.000   0.200   0.000    0.00
  21.050   16.92   10.08    0.43   0.000   0.200   0.000    0.00
  21.100   16.63    9.65   -0.22   0.000   0.200   0.000    0.00
  21.150   16.57    9.21    0.14   0.000   0.200   0.000    0.00
  21.200   16.72    7.36   -0.14   0.000   0.200   0.000    0.00
  21.250   16.89   10.32   -0.11   0.000   0.200   0.000    0.00
  21.300   16.70    7.86    0.52   0.000   0.200   0.000    0.00
  21.350   16.40    6.31   -0.23   0.000   0.200   0.000    0.00
  21.400   16.25    6.03   -0.64   0.000   0.200   0.000    0.00
  21.450   17.45    9.21   -0.89   0.000   0.200   0.000    0.00
  21.500   16.37   11.15   -0.53   0.000   0.200   0.000    0.00
  21.550   16.12   13.14    0.69   0.000   0.200   0.000    0.00
  21.600   15.67   16.69    0.72   0.000   0.200   0.000    0.00
  21.650   15.47   16.68    0.78   0.000   0.200   0.000    0.00
  21.700   16.11   16.81    1.21   0.000   0.200   0.000    0.00
  21.750   16.19   15.58    1.53   0.000   0.200   0.000    0.00
  21.800   16.09   15.43    1.07   0.000   0.200   0.000    0.00
  21.850   15.39   17.76    1.07   0.000   0.200   0.000    0.00
  21.900   15.38   17.25    0.89   0.000   0.200   0.000    0.00
  21.950   14.96   14.92    1.62   0.000   0.200   0.000    0.00
  22.000   15.39   11.13    1.71   0.000   0.200   0.000    0.00
  22.050   15.04   10.59    1.50   0.000   0.200   0.000    0.00
  22.100   15.32    9.96    1.04   0.000   0.200   0.000    0.00
  22.150   15.95   10.58    1.24   0.000   0.200   0.000    0.00
  22.200   15.83   11.11    1.12   0.000   0.200   0.000    0.00
  22.250   15.01    9.41    1.20   0.000   0.200   0.000    0.00
  22.300   14.79    7.80    1.07   0.000   0.200   0.000    0.00
  22.350   14.51    6.96    1.19   0.000   0.200   0.000    0.00