! This hub-height wind-speed file was generated by TurbSim (v1.06.00, 21-Sep-2012) on 16-Jun-2018 at 18:33:06.
!
! The requested statistics for this data were:
!    Mean Total Wind Speed =   13.000 m/s
!    Turbulence Intensity  =   16.531%
!
!   Time  HorSpd  WndDir  VerSpd  HorShr  VerShr  LnVShr  GstSpd
!  (sec)   (m/s)   (deg)   (m/s)     (-)     (-)     (-)   (m/s)
   0.000   12.70   -5.29    0.59   0.000   0.200   0.000    0.00
   0.050   13.17   -4.45    0.71   0.000   0.200   0.000    0.00
   0.100   13.10   -5.08    0.60   0.000   0.200   0.000    0.00
   0.150   12.73   -6.61    1.01   0.000   0.200   0.000    0.00
   0.200   12.56   -5.48    1.42   0.000   0.200   0.000    0.00
   0.250   12.87   -4.54    2.16   0.000   0.200   0.000    0.00
   0.300   12.48   -5.33    1.94   0.000   0.200   0.000    0.00
   0.350   12.74   -0.75    0.87   0.000   0.200   0.000    0.00
   0.400   12.65    0.14    0.53   0.000   0.200   0.000    0.00
   0.450   12.56    0.41    0.88   0.000   0.200   0.000    0.00
   0.500   12.40   -1.67    1.09   0.000   0.200   0.000    0.00
   0.550   12.09    0.02    1.13   0.000   0.200   0.000    0.00
   0.600   11.99    0.81    1.19   0.000   0.200   0.000    0.00
   0.650   12.10   -0.06    1.26   0.000   0.200   0.000    0.00
   0.700   12.55    2.42    1.14   0.000   0.200   0.000    0.00
   0.750   12.37   -2.23    1.33   0.000   0.200   0.000    0.00
   0.800   12.56    1.34    0.52   0.000   0.200   0.000    0.00
   0.850   12.76    2.72    0.33   0.000   0.200   0.000    0.00
   0.900   13.06    3.36   -0.14   0.000   0.200   0.000    0.00
   0.950   12.38    1.23   -0.34   0.000   0.200   0.000    0.00
   1.000   12.25    3.69   -0.48   0.000   0.200   0.000    0.00
   1.050   12.33    4.80   -0.32   0.000   0.200   0.000    0.00
   1.100   13.09    4.13   -0.26   0.000   0.200   0.000    0.00
   1.150   13.42    4.14   -0.24   0.000   0.200   0.000    0.00
   1.200   13.85    5.28   -0.37   0.000   0.200   0.000    0.00
   1.250   13.63    5.09    0.00   0.000   0.200   0.000    0.00
   1.300   13.65    2.96   -0.12   0.000   0.200   0.000    0.00
   1.350   13.60    1.22   -1.11   0.000   0.200   0.000    0.00
   1.400   13.78    0.77   -0.92   0.000   0.200   0.000    0.00
   1.450   13.61    1.31   -0.17   0.000   0.200   0.000    0.00
   1.500   13.76    2.46   -0.02   0.000   0.200   0.000    0.00
   1.550   13.72    2.70   -0.20   0.000   0.200   0.000    0.00
   1.600   13.64    4.81   -0.21   0.000   0.200   0.000    0.00
   1.650   13.73    5.58   -0.54   0.000   0.200   0.000    0.00
   1.700   14.19    5.57    0.60   0.000   0.200   0.000    0.00
   1.750   14.65    6.89    0.26   0.000   0.200   0.000    0.00
   1.800   14.64    7.16    0.26   0.000   0.200   0.000    0.00
   1.850   14.79    6.59   -0.29   0.000   0.200   0.000    0.00
   1.900   15.74    5.64   -0.18   0.000   0.200   0.000    0.00
   1.950   15.38    5.54   -0.74   0.000   0.200   0.000    0.00
   2.000   15.25    4.44   -0.07   0.000   0.200   0.000    0.00
   2.050   15.45    5.94   -0.32   0.000   0.200   0.000    0.00
   2.100   15.46    5.13   -0.06   0.000   0.200   0.000    0.00
   2.150   15.13    2.39   -0.49   0.000   0.200   0.000    0.00
   2.200   14.80    1.14   -0.50   0.000   0.200   0.000    0.00
   2.250   14.60    2.32   -0.35   0.000   0.200   0.000    0.00
   2.300   14.55    1.42   -0.34   0.000   0.200   0.000    0.00
   2.350   14.37    2.62   -0.30   0.000   0.200   0.000    0.00
   2.400   14.33    1.14    0.26   0.000   0.200   0.000    0.00
   2.450   14.02    1.34   -0.21   0.000   0.200   0.000    0.00
   2.500   14.19   -0.83   -0.50   0.000   0.200   0.000    0.00
   2.550   13.75   -0.78   -0.34   0.000   0.200   0.000    0.00
   2.600   13.98   -0.96   -0.12   0.000   0.200   0.000    0.00
   2.650   13.87   -2.04    0.06   0.000   0.200   0.000    0.00
   2.700   14.19   -3.62    0.16   0.000   0.200   0.000    0.00
   2.750   14.83   -1.29    0.20   0.000   0.200   0.000    0.00
   2.800   14.78   -2.14   -0.04   0.000   0.200   0.000    0.00
   2.850   14.74   -1.77    0.30   0.000   0.200   0.000    0.00
   2.900   14.73   -1.47   -0.12   0.000   0.200   0.000    0.00
   2.950   15.25   -0.58   -0.16   0.000   0.200   0.000    0.00
   3.000   15.29    0.50   -0.27   0.000   0.200   0.000    0.00
   3.050   14.78    1.28   -0.07   0.000   0.200   0.000    0.00
   3.100   14.61   -0.46    0.13   0.000   0.200   0.000    0.00
   3.150   14.78   -1.47    0.12   0.000   0.200   0.000    0.00
   3.200   15.13   -1.33   -0.31   0.000   0.200   0.000    0.00
   3.250   14.63   -2.87   -0.14   0.000   0.200   0.000    0.00
   3.300   14.59   -1.06   -0.11   0.000   0.200   0.000    0.00
   3.350   14.54   -2.77   -0.19   0.000   0.200   0.000    0.00
   3.400   13.95   -4.26    0.16   0.000   0.200   0.000    0.00
   3.450   14.23   -4.11    0.27   0.000   0.200   0.000    0.00
   3.500   14.38   -4.95    0.10   0.000   0.200   0.000    0.00
   3.550   14.58   -6.87    0.34   0.000   0.200   0.000    0.00
   3.600   14.78   -3.54    0.64   0.000   0.200   0.000    0.00
   3.650   14.94   -1.24    0.42   0.000   0.200   0.000    0.00
   3.700   15.22   -4.79    1.01   0.000   0.200   0.000    0.00
   3.750   14.98   -1.85    1.49   0.000   0.200   0.000    0.00
   3.800   14.87   -0.88    0.89   0.000   0.200   0.000    0.00
   3.850   14.58    1.62    0.92   0.000   0.200   0.000    0.00
   3.900   14.52    3.20    0.10   0.000   0.200   0.000    0.00
   3.950   13.83    5.06   -0.08   0.000   0.200   0.000    0.00
   4.000   13.95    2.60   -0.10   0.000   0.200   0.000    0.00
   4.050   13.47    1.89   -0.28   0.000   0.200   0.000    0.00
   4.100   13.57    3.71   -0.66   0.000   0.200   0.000    0.00
   4.150   13.59    5.66   -1.11   0.000   0.200   0.000    0.00
   4.200   13.47    6.72   -1.49   0.000   0.200   0.000    0.00
   4.250   14.78    8.13   -0.71   0.000   0.200   0.000    0.00
   4.300   15.19    7.45   -1.13   0.000   0.200   0.000    0.00
   4.350   14.82    6.31   -1.23   0.000   0.200   0.000    0.00
   4.400   14.99    8.02   -0.73   0.000   0.200   0.000    0.00
   4.450   15.40    9.00   -0.68   0.000   0.200   0.000    0.00
   4.500   15.39    8.26   -0.66   0.000   0.200   0.000    0.00
   4.550   15.63    7.88   -0.20   0.000   0.200   0.000    0.00
   4.600   15.64    8.51    0.24   0.000   0.200   0.000    0.00
   4.650   15.83    5.81   -0.29   0.000   0.200   0.000    0.00
   4.700   15.89    6.35   -0.35   0.000   0.200   0.000    0.00
   4.750   15.94    9.20   -0.09   0.000   0.200   0.000    0.00
   4.800   15.79    9.20    0.10   0.000   0.200   0.000    0.00
   4.850   15.91    9.30    0.34   0.000   0.200   0.000    0.00
   4.900   16.29   10.00    0.17   0.000   0.200   0.000    0.00
   4.950   16.64   10.34    0.71   0.000   0.200   0.000    0.00
   5.000   15.89    8.17    0.82   0.000   0.200   0.000    0.00
   5.050   15.79    9.04    0.98   0.000   0.200   0.000    0.00
   5.100   15.75    9.68    0.28   0.000   0.200   0.000    0.00
   5.150   15.84    8.61    0.14   0.000   0.200   0.000    0.00
   5.200   15.69   10.26    0.13   0.000   0.200   0.000    0.00
   5.250   15.62    8.13    0.95   0.000   0.200   0.000    0.00
   5.300   15.09    5.24    0.55   0.000   0.200   0.000    0.00
   5.350   14.94    4.00   -0.30   0.000   0.200   0.000    0.00
   5.400   15.09    5.87   -0.04   0.000   0.200   0.000    0.00
   5.450   15.75    6.41    0.04   0.000   0.200   0.000    0.00
   5.500   14.96    7.75    0.07   0.000   0.200   0.000    0.00
   5.550   14.87    6.75   -0.34   0.000   0.200   0.000    0.00
   5.600   15.33    5.16   -0.18   0.000   0.200   0.000    0.00
   5.650   15.55    3.35    0.00   0.000   0.200   0.000    0.00
   5.700   15.55    5.90    0.16   0.000   0.200   0.000    0.00
   5.750   15.30    6.78    0.17   0.000   0.200   0.000    0.00
   5.800   14.41    6.18   -0.68   0.000   0.200   0.000    0.00
   5.850   14.39    5.63   -0.84   0.000   0.200   0.000    0.00
   5.900   14.64    8.47   -1.16   0.000   0.200   0.000    0.00
   5.950   15.01    6.65   -1.36   0.000   0.200   0.000    0.00
   6.000   15.29    7.59   -1.15   0.000   0.200   0.000    0.00
   6.050   14.77   10.22   -1.02   0.000   0.200   0.000    0.00
   6.100   14.73    9.61   -1.18   0.000   0.200   0.000    0.00
   6.150   14.54    7.11   -1.87   0.000   0.200   0.000    0.00
   6.200   14.40   10.81   -1.91   0.000   0.200   0.000    0.00
   6.250   13.45   11.05   -1.58   0.000   0.200   0.000    0.00
   6.300   13.45   11.74   -1.40   0.000   0.200   0.000    0.00
   6.350   14.02   12.42   -1.42   0.000   0.200   0.000    0.00
   6.400   14.29   12.11   -1.40   0.000   0.200   0.000    0.00
   6.450   14.79   13.22   -1.12   0.000   0.200   0.000    0.00
   6.500   14.95   13.72   -1.58   0.000   0.200   0.000    0.00
   6.550   15.07   14.46   -1.23   0.000   0.200   0.000    0.00
   6.600   15.28   13.51   -1.67   0.000   0.200   0.000    0.00
   6.650   15.79   12.31   -1.21   0.000   0.200   0.000    0.00
   6.700   15.43   11.08   -1.10   0.000   0.200   0.000    0.00
   6.750   15.29   10.90   -0.68   0.000   0.200   0.000    0.00
   6.800   15.41   10.07   -0.65   0.000   0.200   0.000    0.00
   6.850   15.45    7.60   -0.71   0.000   0.200   0.000    0.00
   6.900   14.80    7.74   -0.35   0.000   0.200   0.000    0.00
   6.950   14.88    5.81   -0.15   0.000   0.200   0.000    0.00
   7.000   14.65    7.37   -0.07   0.000   0.200   0.000    0.00
   7.050   14.45    9.62   -0.04   0.000   0.200   0.000    0.00
   7.100   15.07    7.01   -0.19   0.000   0.200   0.000    0.00
   7.150   15.66    9.95   -0.37   0.000   0.200   0.000    0.00
   7.200   15.29    8.51    0.02   0.000   0.200   0.000    0.00
   7.250   15.49    7.84   -0.18   0.000   0.200   0.000    0.00
   7.300   15.94    7.08   -0.06   0.000   0.200   0.000    0.00
   7.350   16.02    7.38    0.22   0.000   0.200   0.000    0.00
   7.400   15.54    8.12    0.86   0.000   0.200   0.000    0.00
   7.450   15.78    7.63    0.59   0.000   0.200   0.000    0.00
   7.500   16.16    8.85    0.20   0.000   0.200   0.000    0.00
   7.550   16.41    7.57   -0.07   0.000   0.200   0.000    0.00
   7.600   16.03    8.17    0.08   0.000   0.200   0.000    0.00
   7.650   16.32    8.60    0.16   0.000   0.200   0.000    0.00
   7.700   16.47    7.31   -0.56   0.000   0.200   0.000    0.00
   7.750   15.58    6.85   -0.98   0.000   0.200   0.000    0.00
   7.800   15.24    5.55   -1.19   0.000   0.200   0.000    0.00
   7.850   15.85    4.36   -1.42   0.000   0.200   0.000    0.00
   7.900   15.76    5.58   -0.98   0.000   0.200   0.000    0.00
   7.950   15.47    6.33   -0.82   0.000   0.200   0.000    0.00
   8.000   15.64    5.83   -0.78   0.000   0.200   0.000    0.00
   8.050   15.62    6.98   -0.60   0.000   0.200   0.000    0.00
   8.100   15.46    4.36   -0.47   0.000   0.200   0.000    0.00
   8.150   15.43    3.58    0.23   0.000   0.200   0.000    0.00
   8.200   15.84    7.68    0.29   0.000   0.200   0.000    0.00
   8.250   15.85    7.47    0.59   0.000   0.200   0.000    0.00
   8.300   15.33    7.76    0.53   0.000   0.200   0.000    0.00
   8.350   14.88    6.49    0.76   0.000   0.200   0.000    0.00
   8.400   14.81    8.32    0.79   0.000   0.200   0.000    0.00
   8.450   15.38    8.19    0.09   0.000   0.200   0.000    0.00
   8.500   15.90    5.37   -0.13   0.000   0.200   0.000    0.00
   8.550   16.47    2.89    0.19   0.000   0.200   0.000    0.00
   8.600   16.35    4.33    0.30   0.000   0.200   0.000    0.00
   8.650   16.50    6.82   -0.11   0.000   0.200   0.000    0.00
   8.700   16.52    6.64    0.68   0.000   0.200   0.000    0.00
   8.750   16.16    4.61    0.34   0.000   0.200   0.000    0.00
   8.800   15.94    3.41    0.51   0.000   0.200   0.000    0.00
   8.850   16.00    4.51   -0.23   0.000   0.200   0.000    0.00
   8.900   15.92    6.32    0.17   0.000   0.200   0.000    0.00
   8.950   15.82    7.26    0.37   0.000   0.200   0.000    0.00
   9.000   16.28    7.70    0.92   0.000   0.200   0.000    0.00
   9.050   16.55    8.21    0.00   0.000   0.200   0.000    0.00
   9.100   16.65    9.20    0.34   0.000   0.200   0.000    0.00
   9.150   16.48   10.16    0.64   0.000   0.200   0.000    0.00
   9.200   16.19    7.63    0.40   0.000   0.200   0.000    0.00
   9.250   16.18    6.48    0.66   0.000   0.200   0.000    0.00
   9.300   16.57    6.87    0.40   0.000   0.200   0.000    0.00
   9.350   16.32    7.35    0.42   0.000   0.200   0.000    0.00
   9.400   16.14    7.18    0.34   0.000   0.200   0.000    0.00
   9.450   15.72    7.90    0.38   0.000   0.200   0.000    0.00
   9.500   16.30    7.45    0.77   0.000   0.200   0.000    0.00
   9.550   16.35    7.44    0.86   0.000   0.200   0.000    0.00
   9.600   16.05    6.89    0.37   0.000   0.200   0.000    0.00
   9.650   16.19    7.80    0.41   0.000   0.200   0.000    0.00
   9.700   16.71    7.11   -0.11   0.000   0.200   0.000    0.00
   9.750   16.66    7.26   -0.26   0.000   0.200   0.000    0.00
   9.800   16.86    5.53   -0.19   0.000   0.200   0.000    0.00
   9.850   17.00    5.06   -0.40   0.000   0.200   0.000    0.00
   9.900   17.06    5.67   -0.65   0.000   0.200   0.000    0.00
   9.950   17.27    6.68    0.39   0.000   0.200   0.000    0.00
  10.000   16.80    6.40    0.41   0.000   0.200   0.000    0.00
  10.050   16.63    4.96   -0.03   0.000   0.200   0.000    0.00
  10.100   16.89    6.58   -0.81   0.000   0.200   0.000    0.00
  10.150   16.96    5.63   -0.68   0.000   0.200   0.000    0.00
  10.200   17.35    3.71   -0.51   0.000   0.200   0.000    0.00
  10.250   16.64    3.02   -0.28   0.000   0.200   0.000    0.00
  10.300   16.83    1.24   -0.49   0.000   0.200   0.000    0.00
  10.350   16.76    1.64   -1.10   0.000   0.200   0.000    0.00
  10.400   16.73    5.44   -1.02   0.000   0.200   0.000    0.00
  10.450   16.45    3.75   -0.77   0.000   0.200   0.000    0.00
  10.500   16.57    2.77   -0.40   0.000   0.200   0.000    0.00
  10.550   16.35    4.51   -0.03   0.000   0.200   0.000    0.00
  10.600   15.70    4.11   -0.27   0.000   0.200   0.000    0.00
  10.650   15.94    3.53   -0.15   0.000   0.200   0.000    0.00
  10.700   15.88    3.64    0.04   0.000   0.200   0.000    0.00
  10.750   16.11    2.87   -0.47   0.000   0.200   0.000    0.00
  10.800   16.41    2.77   -0.36   0.000   0.200   0.000    0.00
  10.850   16.31    2.56   -0.52   0.000   0.200   0.000    0.00
  10.900   16.05    4.06   -0.85   0.000   0.200   0.000    0.00
  10.950   15.42    4.77   -0.84   0.000   0.200   0.000    0.00
  11.000   15.43    4.68   -1.06   0.000   0.200   0.000    0.00
  11.050   15.04    2.53   -0.39   0.000   0.200   0.000    0.00
  11.100   15.35    3.67   -0.11   0.000   0.200   0.000    0.00
  11.150   15.98    5.20   -0.60   0.000   0.200   0.000    0.00
  11.200   15.79    4.38   -0.74   0.000   0.200   0.000    0.00
  11.250   15.19    2.90   -0.70   0.000   0.200   0.000    0.00
  11.300   15.20    5.18   -0.19   0.000   0.200   0.000    0.00
  11.350   15.40    5.80    0.15   0.000   0.200   0.000    0.00
  11.400   15.22    4.97    0.41   0.000   0.200   0.000    0.00
  11.450   15.02    3.47    0.01   0.000   0.200   0.000    0.00
  11.500   14.75    5.70    0.18   0.000   0.200   0.000    0.00
  11.550   14.73    5.77    0.66   0.000   0.200   0.000    0.00
  11.600   14.53    7.62    0.44   0.000   0.200   0.000    0.00
  11.650   14.81    8.83    0.09   0.000   0.200   0.000    0.00
  11.700   15.06    7.85   -0.19   0.000   0.200   0.000    0.00
  11.750   14.94    6.49   -0.16   0.000   0.200   0.000    0.00
  11.800   15.03    6.12    0.43   0.000   0.200   0.000    0.00
  11.850   14.96    7.80    0.52   0.000   0.200   0.000    0.00
  11.900   15.99    6.87    0.87   0.000   0.200   0.000    0.00
  11.950   16.20    6.47    0.76   0.000   0.200   0.000    0.00
  12.000   15.75    4.96   -0.06   0.000   0.200   0.000    0.00
  12.050   15.27    4.95    0.08   0.000   0.200   0.000    0.00
  12.100   15.62    4.06    0.02   0.000   0.200   0.000    0.00
  12.150   15.42    3.19    0.14   0.000   0.200   0.000    0.00
  12.200   15.41    4.96    0.39   0.000   0.200   0.000    0.00
  12.250   15.41    5.00    0.50   0.000   0.200   0.000    0.00
  12.300   15.94    5.89    0.71   0.000   0.200   0.000    0.00
  12.350   15.92    7.31    0.78   0.000   0.200   0.000    0.00
  12.400   15.87    6.61    0.43   0.000   0.200   0.000    0.00
  12.450   16.00    5.12    0.47   0.000   0.200   0.000    0.00
  12.500   15.96    3.09    0.73   0.000   0.200   0.000    0.00
  12.550   16.34    2.70    0.76   0.000   0.200   0.000    0.00
  12.600   16.25    2.73    0.27   0.000   0.200   0.000    0.00
  12.650   16.38    1.48   -0.58   0.000   0.200   0.000    0.00
  12.700   16.21    2.87   -0.37   0.000   0.200   0.000    0.00
  12.750   16.38    4.29   -0.89   0.000   0.200   0.000    0.00
  12.800   16.31    6.09   -0.83   0.000   0.200   0.000    0.00
  12.850   16.77    7.96   -0.97   0.000   0.200   0.000    0.00
  12.900   17.14    7.46   -0.80   0.000   0.200   0.000    0.00
  12.950   16.79    6.14   -0.68   0.000   0.200   0.000    0.00
  13.000   16.83    2.95   -0.85   0.000   0.200   0.000    0.00
  13.050   17.04    4.97   -0.71   0.000   0.200   0.000    0.00
  13.100   16.72    3.74   -0.91   0.000   0.200   0.000    0.00
  13.150   16.31    4.28   -0.66   0.000   0.200   0.000    0.00
  13.200   16.42    4.84   -0.87   0.000   0.200   0.000    0.00
  13.250   16.15    4.74   -0.46   0.000   0.200   0.000    0.00
  13.300   16.02    4.69   -0.58   0.000   0.200   0.000    0.00
  13.350   16.73    4.55   -0.03   0.000   0.200   0.000    0.00
  13.400   16.54    4.68    0.09   0.000   0.200   0.000    0.00
  13.450   16.74    3.49   -0.46   0.000   0.200   0.000    0.00
  13.500   16.61    4.69   -0.29   0.000   0.200   0.000    0.00
  13.550   16.40    5.51   -0.20   0.000   0.200   0.000    0.00
  13.600   15.63    5.95    0.16   0.000   0.200   0.000    0.00
  13.650   16.05    6.31    0.13   0.000   0.200   0.000    0.00
  13.700   16.30   10.47    0.29   0.000   0.200   0.000    0.00
  13.750   16.37    9.12   -0.45   0.000   0.200   0.000    0.00
  13.800   16.59   11.03   -0.57   0.000   0.200   0.000    0.00
  13.850   16.53   11.37   -0.89   0.000   0.200   0.000    0.00
  13.900   16.89   13.04   -0.56   0.000   0.200   0.000    0.00
  13.950   16.91   13.06   -0.09   0.000   0.200   0.000    0.00
  14.000   16.51   13.18    0.19   0.000   0.200   0.000    0.00
  14.050   16.23   12.41   -0.14   0.000   0.200   0.000    0.00
  14.100   16.23   12.35   -0.27   0.000   0.200   0.000    0.00
  14.150   16.10   14.86   -0.11   0.000   0.200   0.000    0.00
  14.200   15.94   16.58    0.25   0.000   0.200   0.000    0.00
  14.250   16.13   16.14   -0.45   0.000   0.200   0.000    0.00
  14.300   16.50   16.44   -0.60   0.000   0.200   0.000    0.00
  14.350   16.09   17.93   -0.83   0.000   0.200   0.000    0.00
  14.400   15.41   15.53   -0.29   0.000   0.200   0.000    0.00
  14.450   15.34   17.22   -0.31   0.000   0.200   0.000    0.00
  14.500   14.87   16.97   -0.03   0.000   0.200   0.000    0.00
  14.550   15.13   17.28   -0.32   0.000   0.200   0.000    0.00
  14.600   15.17   15.47   -1.17   0.000   0.200   0.000    0.00
  14.650   15.83   15.92   -1.13   0.000   0.200   0.000    0.00
  14.700   15.90   17.51   -0.67   0.000   0.200   0.000    0.00
  14.750   16.20   13.46   -1.39   0.000   0.200   0.000    0.00
  14.800   15.91   13.42   -1.37   0.000   0.200   0.000    0.00
  14.850   16.59   11.86   -1.45   0.000   0.200   0.000    0.00
  14.900   16.07   14.02   -1.62   0.000   0.200   0.000    0.00
  14.950   16.42   14.41   -1.48   0.000   0.200   0.000    0.00
  15.000   16.55   13.66   -1.21   0.000   0.200   0.000    0.00
  15.050   16.30   15.37   -0.97   0.000   0.200   0.000    0.00
  15.100   16.23   19.07   -1.13   0.000   0.200   0.000    0.00
  15.150   16.11   18.51   -0.93   0.000   0.200   0.000    0.00
  15.200   16.17   18.59   -0.66   0.000   0.200   0.000    0.00
  15.250   15.94   17.36   -0.27   0.000   0.200   0.000    0.00
  15.300   15.79   15.99   -0.16   0.000   0.200   0.000    0.00
  15.350   15.87   15.74   -0.44   0.000   0.200   0.000    0.00
  15.400   15.56   15.65   -0.49   0.000   0.200   0.000    0.00
  15.450   15.50   15.07    0.00   0.000   0.200   0.000    0.00
  15.500   16.19   17.25   -0.54   0.000   0.200   0.000    0.00
  15.550   16.71   16.38   -1.04   0.000   0.200   0.000    0.00
  15.600   17.30   14.81   -1.78   0.000   0.200   0.000    0.00
  15.650   17.24   14.98   -1.70   0.000   0.200   0.000    0.00
  15.700   16.87   16.15   -2.08   0.000   0.200   0.000    0.00
  15.750   16.91   17.87   -2.71   0.000   0.200   0.000    0.00
  15.800   16.89   14.51   -2.36   0.000   0.200   0.000    0.00
  15.850   16.92   15.42   -1.91   0.000   0.200   0.000    0.00
  15.900   16.84   14.93   -1.71   0.000   0.200   0.000    0.00
  15.950   16.74   13.33   -2.11   0.000   0.200   0.000    0.00
  16.000   16.53   13.13   -2.08   0.000   0.200   0.000    0.00
  16.050   16.51   13.02   -2.96   0.000   0.200   0.000    0.00
  16.100   16.41   13.57   -3.06   0.000   0.200   0.000    0.00
  16.150   16.35   11.62   -2.38   0.000   0.200   0.000    0.00
  16.200   16.95   10.81   -1.85   0.000   0.200   0.000    0.00
  16.250   16.68   11.78   -2.10   0.000   0.200   0.000    0.00
  16.300   16.53   11.11   -2.70   0.000   0.200   0.000    0.00
  16.350   17.15   11.72   -2.26   0.000   0.200   0.000    0.00
  16.400   17.48   11.26   -1.32   0.000   0.200   0.000    0.00
  16.450   17.67   11.93   -1.17   0.000   0.200   0.000    0.00
  16.500   18.03   14.61   -1.03   0.000   0.200   0.000    0.00
  16.550   18.30   16.33   -1.03   0.000   0.200   0.000    0.00
  16.600   17.68   14.75   -1.02   0.000   0.200   0.000    0.00
  16.650   17.28   14.80   -0.90   0.000   0.200   0.000    0.00
  16.700   17.69   13.34   -0.46   0.000   0.200   0.000    0.00
  16.750   17.53   13.88   -1.09   0.000   0.200   0.000    0.00
  16.800   17.53   14.22   -0.77   0.000   0.200   0.000    0.00
  16.850   17.76   13.09   -0.90   0.000   0.200   0.000    0.00
  16.900   17.68   11.17   -0.89   0.000   0.200   0.000    0.00
  16.950   17.43   11.02   -0.89   0.000   0.200   0.000    0.00
  17.000   17.26   10.14   -0.76   0.000   0.200   0.000    0.00
  17.050   17.42   10.47   -1.48   0.000   0.200   0.000    0.00
  17.100   17.57    9.29   -1.72   0.000   0.200   0.000    0.00
  17.150   17.94   10.26   -2.09   0.000   0.200   0.000    0.00
  17.200   17.71    9.20   -1.74   0.000   0.200   0.000    0.00
  17.250   18.05   10.93   -1.12   0.000   0.200   0.000    0.00
  17.300   18.62   11.86   -1.00   0.000   0.200   0.000    0.00
  17.350   18.87   11.64   -0.70   0.000   0.200   0.000    0.00
  17.400   18.64   11.06   -1.33   0.000   0.200   0.000    0.00
  17.450   18.97   11.56   -1.10   0.000   0.200   0.000    0.00
  17.500   19.58   12.40   -0.91   0.000   0.200   0.000    0.00
  17.550   19.84   14.27   -1.32   0.000   0.200   0.000    0.00
  17.600   19.51   14.35   -1.12   0.000   0.200   0.000    0.00
  17.650   19.01   15.56   -0.94   0.000   0.200   0.000    0.00
  17.700   19.23   15.10   -0.48   0.000   0.200   0.000    0.00
  17.750   18.75   14.31   -0.33   0.000   0.200   0.000    0.00
  17.800   18.23   10.55   -0.42   0.000   0.200   0.000    0.00
  17.850   18.63    9.52   -0.49   0.000   0.200   0.000    0.00
  17.900   18.63    9.53   -0.67   0.000   0.200   0.000    0.00
  17.950   18.97    7.45   -0.28   0.000   0.200   0.000    0.00
  18.000   19.16    5.72   -0.85   0.000   0.200   0.000    0.00
  18.050   18.63    4.41   -0.96   0.000   0.200   0.000    0.00
  18.100   18.10    6.19   -0.29   0.000   0.200   0.000    0.00
  18.150   18.18    5.60   -0.70   0.000   0.200   0.000    0.00
  18.200   18.38    6.33   -1.44   0.000   0.200   0.000    0.00
  18.250   18.64    4.71   -1.51   0.000   0.200   0.000    0.00
  18.300   18.83    5.34   -1.46   0.000   0.200   0.000    0.00
  18.350   18.18    6.03   -1.83   0.000   0.200   0.000    0.00
  18.400   18.00    5.15   -1.63   0.000   0.200   0.000    0.00
  18.450   18.16    6.25   -1.58   0.000   0.200   0.000    0.00
  18.500   18.01    6.18   -1.68   0.000   0.200   0.000    0.00
  18.550   17.42    6.74   -1.55   0.000   0.200   0.000    0.00
  18.600   16.78    8.91   -1.35   0.000   0.200   0.000    0.00
  18.650   17.40    8.34   -1.55   0.000   0.200   0.000    0.00
  18.700   17.83    7.32   -1.57   0.000   0.200   0.000    0.00
  18.750   17.50    7.17   -1.18   0.000   0.200   0.000    0.00
  18.800   17.27    7.14   -1.12   0.000   0.200   0.000    0.00
  18.850   16.84    5.97   -1.17   0.000   0.200   0.000    0.00
  18.900   17.25    5.01   -0.53   0.000   0.200   0.000    0.00
  18.950   16.96    5.51   -0.88   0.000   0.200   0.000    0.00
  19.000   16.79    5.30   -1.12   0.000   0.200   0.000    0.00
  19.050   16.83    6.75   -0.78   0.000   0.200   0.000    0.00
  19.100   16.88    7.73   -0.38   0.000   0.200   0.000    0.00
  19.150   16.80    7.05   -0.19   0.000   0.200   0.000    0.00
  19.200   16.91    6.65    0.01   0.000   0.200   0.000    0.00
  19.250   17.33    4.59    0.30   0.000   0.200   0.000    0.00
  19.300   17.45    7.46    0.41   0.000   0.200   0.000    0.00
  19.350   18.11    6.51    0.41   0.000   0.200   0.000    0.00
  19.400   17.96    7.11    0.49   0.000   0.200   0.000    0.00
  19.450   17.58    8.22    0.20   0.000   0.200   0.000    0.00
  19.500   17.73    7.73    0.60   0.000   0.200   0.000    0.00
  19.550   18.34    8.90    0.51   0.000   0.200   0.000    0.00
  19.600   17.72    9.38    0.20   0.000   0.200   0.000    0.00
  19.650   17.61    9.08   -0.39   0.000   0.200   0.000    0.00
  19.700   17.81    9.29   -0.25   0.000   0.200   0.000    0.00
  19.750   17.95   11.25   -0.51   0.000   0.200   0.000    0.00
  19.800   18.20    8.87   -0.79   0.000   0.200   0.000    0.00
  19.850   18.83    8.48   -0.71   0.000   0.200   0.000    0.00
  19.900   18.95    9.21   -0.21   0.000   0.200   0.000    0.00
  19.950   18.43    5.99   -0.36   0.000   0.200   0.000    0.00
  20.000   18.55    6.06    0.16   0.000   0.200   0.000    0.00
  20.050   18.38    5.51    0.18   0.000   0.200   0.000    0.00
  20.100   17.95    4.23    0.19   0.000   0.200   0.000    0.00
  20.150   18.32    4.62    0.27   0.000   0.200   0.000    0.00
  20.200   18.43    2.24    0.57   0.000   0.200   0.000    0.00
  20.250   18.27    2.99    1.12   0.000   0.200   0.000    0.00
  20.300   18.40    4.55    1.33   0.000   0.200   0.000    0.00
  20.350   18.26    4.99    1.36   0.000   0.200   0.000    0.00
  20.400   18.05    3.05    1.20   0.000   0.200   0.000    0.00
  20.450   18.01    0.53    1.35   0.000   0.200   0.000    0.00
  20.500   17.72    2.57    1.79   0.000   0.200   0.000    0.00
  20.550   17.45    2.62    1.33   0.000   0.200   0.000    0.00
  20.600   17.29    2.43    0.68   0.000   0.200   0.000    0.00
  20.650   16.84    0.98    0.30   0.000   0.200   0.000    0.00
  20.700   17.14    4.31    0.86   0.000   0.200   0.000    0.00
  20.750   17.00    4.02    1.19   0.000   0.200   0.000    0.00
  20.800   17.19    1.92    0.90   0.000   0.200   0.000    0.00
  20.850   17.83    0.84    0.67   0.000   0.200   0.000    0.00
  20.900   17.33    0.52    0.59   0.000   0.200   0.000    0.00
  20.950   18.33    1.32    0.43   0.000   0.200   0.000    0.00
  21.000   17.76    2.39    0.33   0.000   0.200   0.000    0.00
  21.050   17.52    3.79    0.71   0.000   0.200   0.000    0.00
  21.100   17.30    3.79    1.03   0.000   0.200   0.000    0.00
  21.150   17.05    5.67    1.21   0.000   0.200   0.000    0.00
  21.200   16.78    6.42    1.38   0.000   0.200   0.000    0.00
  21.250   16.74    5.00    0.40   0.000   0.200   0.000    0.00
  21.300   16.92    3.53   -0.19   0.000   0.200   0.000    0.00
  21.350   17.28    5.48   -0.31   0.000   0.200   0.000    0.00
  21.400   17.39    5.71   -0.42   0.000   0.200   0.000    0.00
  21.450   17.51    7.33   -0.47   0.000   0.200   0.000    0.00
  21.500   17.70    7.97   -0.07   0.000   0.200   0.000    0.00
  21.550   17.54    8.00    0.32   0.000   0.200   0.000    0.00
  21.600   17.85    7.25    0.92   0.000   0.200   0.000    0.00
  21.650   18.03    6.61    0.19   0.000   0.200   0.000    0.00
  21.700   18.45    7.50   -0.03   0.000   0.200   0.000    0.00
  21.750   18.39    7.19   -0.14   0.000   0.200   0.000    0.00
  21.800   19.08    6.51    0.14   0.000   0.200   0.000    0.00
  21.850   19.32    5.23    0.16   0.000   0.200   0.000    0.00
  21.900   19.25    4.97    0.51   0.000   0.200   0.000    0.00
  21.950   20.13    5.01    0.27   0.000   0.200   0.000    0.00
  22.000   20.22    4.64    0.04   0.000   0.200   0.000    0.00
  22.050   19.51    5.15   -0.05   0.000   0.200   0.000    0.00
  22.100   20.09    5.68   -0.17   0.000   0.200   0.000    0.00
  22.150   19.48    6.73    0.20   0.000   0.200   0.000    0.00
  22.200   19.47    7.08    0.41   0.000   0.200   0.000    0.00
  22.250   19.79    5.49    0.41   0.000   0.200   0.000    0.00
  22.300   20.00    3.89    0.04   0.000   0.200   0.000    0.00
  22.350   19.77    6.82   -0.24   0.000   0.200   0.000    0.00