! This hub-height wind-speed file was generated by TurbSim (v1.06.00, 21-Sep-2012) on 16-Jun-2018 at 18:36:27.
!
! The requested statistics for this data were:
!    Mean Total Wind Speed =   19.000 m/s
!    Turbulence Intensity  =   19.405%
!
!   Time  HorSpd  WndDir  VerSpd  HorShr  VerShr  LnVShr  GstSpd
!  (sec)   (m/s)   (deg)   (m/s)     (-)     (-)     (-)   (m/s)
   0.000   21.87  -17.59    0.22   0.000   0.200   0.000    0.00
   0.050   22.12  -19.19    0.00   0.000   0.200   0.000    0.00
   0.100   23.44  -19.58   -0.32   0.000   0.200   0.000    0.00
   0.150   23.45  -17.09   -0.10   0.000   0.200   0.000    0.00
   0.200   23.25  -16.04    0.40   0.000   0.200   0.000    0.00
   0.250   23.59  -18.14    0.63   0.000   0.200   0.000    0.00
   0.300   23.02  -17.93   -0.42   0.000   0.200   0.000    0.00
   0.350   23.17  -18.42    0.44   0.000   0.200   0.000    0.00
   0.400   23.46  -14.79   -0.35   0.000   0.200   0.000    0.00
   0.450   24.55  -12.19    0.45   0.000   0.200   0.000    0.00
   0.500   24.37  -12.87    1.93   0.000   0.200   0.000    0.00
   0.550   23.77  -10.86    2.28   0.000   0.200   0.000    0.00
   0.600   23.38  -13.97    1.65   0.000   0.200   0.000    0.00
   0.650   24.18  -13.48    0.26   0.000   0.200   0.000    0.00
   0.700   23.32  -10.57   -0.09   0.000   0.200   0.000    0.00
   0.750   22.64  -11.00    0.20   0.000   0.200   0.000    0.00
   0.800   21.73   -9.23   -0.92   0.000   0.200   0.000    0.00
   0.850   21.30   -7.46   -1.45   0.000   0.200   0.000    0.00
   0.900   21.28   -7.38   -1.86   0.000   0.200   0.000    0.00
   0.950   21.47   -9.36   -1.56   0.000   0.200   0.000    0.00
   1.000   21.97   -6.74   -1.14   0.000   0.200   0.000    0.00
   1.050   20.70   -8.28   -1.69   0.000   0.200   0.000    0.00
   1.100   20.71   -7.12   -1.91   0.000   0.200   0.000    0.00
   1.150   19.04   -8.23   -1.97   0.000   0.200   0.000    0.00
   1.200   18.70   -9.35   -1.12   0.000   0.200   0.000    0.00
   1.250   18.93   -8.67   -0.17   0.000   0.200   0.000    0.00
   1.300   19.27  -10.72   -0.78   0.000   0.200   0.000    0.00
   1.350   20.13  -10.68   -0.02   0.000   0.200   0.000    0.00
   1.400   20.32   -9.86    0.11   0.000   0.200   0.000    0.00
   1.450   19.93  -11.01   -0.98   0.000   0.200   0.000    0.00
   1.500   19.29  -12.94   -0.77   0.000   0.200   0.000    0.00
   1.550   19.65  -12.97    0.55   0.000   0.200   0.000    0.00
   1.600   19.13  -13.87    0.76   0.000   0.200   0.000    0.00
   1.650   19.43  -10.91    1.51   0.000   0.200   0.000    0.00
   1.700   18.59  -11.42    1.74   0.000   0.200   0.000    0.00
   1.750   17.94  -13.06    1.66   0.000   0.200   0.000    0.00
   1.800   17.74  -16.25    2.37   0.000   0.200   0.000    0.00
   1.850   17.87  -17.91    2.37   0.000   0.200   0.000    0.00
   1.900   18.10  -17.72    1.12   0.000   0.200   0.000    0.00
   1.950   19.12  -17.85    1.27   0.000   0.200   0.000    0.00
   2.000   19.03  -16.86   -0.14   0.000   0.200   0.000    0.00
   2.050   18.28  -14.08   -0.18   0.000   0.200   0.000    0.00
   2.100   18.96  -13.78    0.22   0.000   0.200   0.000    0.00
   2.150   20.03  -15.59   -0.30   0.000   0.200   0.000    0.00
   2.200   19.50  -12.20   -0.78   0.000   0.200   0.000    0.00
   2.250   18.83  -12.93   -2.39   0.000   0.200   0.000    0.00
   2.300   18.85  -17.05   -2.50   0.000   0.200   0.000    0.00
   2.350   18.74  -16.33   -1.70   0.000   0.200   0.000    0.00
   2.400   18.16  -14.36   -1.81   0.000   0.200   0.000    0.00
   2.450   18.53  -13.95   -2.87   0.000   0.200   0.000    0.00
   2.500   17.54  -10.27   -3.49   0.000   0.200   0.000    0.00
   2.550   17.95  -15.07   -4.06   0.000   0.200   0.000    0.00
   2.600   18.41  -13.97   -3.18   0.000   0.200   0.000    0.00
   2.650   17.55  -15.27   -2.51   0.000   0.200   0.000    0.00
   2.700   18.60  -11.81   -0.38   0.000   0.200   0.000    0.00
   2.750   18.75   -7.10   -0.33   0.000   0.200   0.000    0.00
   2.800   19.23   -4.17   -0.98   0.000   0.200   0.000    0.00
   2.850   19.73   -7.29   -0.75   0.000   0.200   0.000    0.00
   2.900   20.58   -6.37   -1.39   0.000   0.200   0.000    0.00
   2.950   20.81   -7.85    0.13   0.000   0.200   0.000    0.00
   3.000   21.50   -9.13   -1.24   0.000   0.200   0.000    0.00
   3.050   21.03   -6.78   -1.35   0.000   0.200   0.000    0.00
   3.100   21.26   -4.53    0.10   0.000   0.200   0.000    0.00
   3.150   20.98   -7.18   -0.07   0.000   0.200   0.000    0.00
   3.200   21.35   -7.29    0.38   0.000   0.200   0.000    0.00
   3.250   21.21   -3.64    0.71   0.000   0.200   0.000    0.00
   3.300   20.29   -3.87   -0.17   0.000   0.200   0.000    0.00
   3.350   20.15   -5.92    1.76   0.000   0.200   0.000    0.00
   3.400   21.08   -7.31    1.22   0.000   0.200   0.000    0.00
   3.450   21.42   -5.73   -0.12   0.000   0.200   0.000    0.00
   3.500   21.52   -5.60    0.81   0.000   0.200   0.000    0.00
   3.550   21.08   -6.81    0.39   0.000   0.200   0.000    0.00
   3.600   20.89   -7.69    1.00   0.000   0.200   0.000    0.00
   3.650   20.56  -10.30    1.68   0.000   0.200   0.000    0.00
   3.700   19.08  -10.55    0.56   0.000   0.200   0.000    0.00
   3.750   20.34  -11.61    1.42   0.000   0.200   0.000    0.00
   3.800   21.71  -11.64    1.09   0.000   0.200   0.000    0.00
   3.850   21.64   -9.23    0.51   0.000   0.200   0.000    0.00
   3.900   21.79  -10.18    0.27   0.000   0.200   0.000    0.00
   3.950   22.60  -10.61    0.84   0.000   0.200   0.000    0.00
   4.000   21.69  -11.49    0.57   0.000   0.200   0.000    0.00
   4.050   20.76  -11.94    1.17   0.000   0.200   0.000    0.00
   4.100   21.87  -16.46    3.40   0.000   0.200   0.000    0.00
   4.150   22.49  -20.26    2.82   0.000   0.200   0.000    0.00
   4.200   23.03  -21.74    2.01   0.000   0.200   0.000    0.00
   4.250   23.82  -21.69    2.37   0.000   0.200   0.000    0.00
   4.300   24.90  -22.13    1.74   0.000   0.200   0.000    0.00
   4.350   25.80  -19.60    1.83   0.000   0.200   0.000    0.00
   4.400   25.40  -19.63    2.38   0.000   0.200   0.000    0.00
   4.450   24.09  -19.40    2.13   0.000   0.200   0.000    0.00
   4.500   23.81  -15.33    2.15   0.000   0.200   0.000    0.00
   4.550   23.44  -11.94    1.58   0.000   0.200   0.000    0.00
   4.600   23.28  -10.87   -0.13   0.000   0.200   0.000    0.00
   4.650   24.89  -12.49   -0.72   0.000   0.200   0.000    0.00
   4.700   24.94  -13.59    0.05   0.000   0.200   0.000    0.00
   4.750   24.83  -14.68   -0.10   0.000   0.200   0.000    0.00
   4.800   23.82  -12.80   -0.49   0.000   0.200   0.000    0.00
   4.850   22.88   -9.79    0.68   0.000   0.200   0.000    0.00
   4.900   23.90  -12.85    1.12   0.000   0.200   0.000    0.00
   4.950   23.72  -14.58    0.58   0.000   0.200   0.000    0.00
   5.000   22.49  -11.56    1.37   0.000   0.200   0.000    0.00
   5.050   22.20  -12.63    1.69   0.000   0.200   0.000    0.00
   5.100   22.69  -12.21    1.56   0.000   0.200   0.000    0.00
   5.150   23.27  -11.05    1.83   0.000   0.200   0.000    0.00
   5.200   23.37  -12.61    1.57   0.000   0.200   0.000    0.00
   5.250   25.11  -12.48    1.99   0.000   0.200   0.000    0.00
   5.300   25.36  -11.73    0.44   0.000   0.200   0.000    0.00
   5.350   23.80  -13.48    1.44   0.000   0.200   0.000    0.00
   5.400   23.67  -13.27    0.43   0.000   0.200   0.000    0.00
   5.450   23.90  -12.98    1.65   0.000   0.200   0.000    0.00
   5.500   23.33  -14.07    1.58   0.000   0.200   0.000    0.00
   5.550   22.50  -13.07    1.52   0.000   0.200   0.000    0.00
   5.600   22.41  -12.60    2.52   0.000   0.200   0.000    0.00
   5.650   21.83  -16.36    2.20   0.000   0.200   0.000    0.00
   5.700   20.94  -18.04    2.44   0.000   0.200   0.000    0.00
   5.750   20.74  -19.41    2.71   0.000   0.200   0.000    0.00
   5.800   21.49  -19.91    2.09   0.000   0.200   0.000    0.00
   5.850   22.01  -21.63    1.68   0.000   0.200   0.000    0.00
   5.900   21.26  -19.97    2.94   0.000   0.200   0.000    0.00
   5.950   21.47  -20.79    2.66   0.000   0.200   0.000    0.00
   6.000   21.81  -18.79    1.80   0.000   0.200   0.000    0.00
   6.050   21.50  -19.19    3.09   0.000   0.200   0.000    0.00
   6.100   21.96  -17.18    0.74   0.000   0.200   0.000    0.00
   6.150   22.33  -19.29    0.56   0.000   0.200   0.000    0.00
   6.200   22.17  -17.99    1.09   0.000   0.200   0.000    0.00
   6.250   22.28  -19.46    1.48   0.000   0.200   0.000    0.00
   6.300   21.38  -24.01    1.46   0.000   0.200   0.000    0.00
   6.350   20.96  -21.96    1.51   0.000   0.200   0.000    0.00
   6.400   22.00  -19.56    2.06   0.000   0.200   0.000    0.00
   6.450   22.18  -20.31    2.32   0.000   0.200   0.000    0.00
   6.500   22.67  -22.26    0.43   0.000   0.200   0.000    0.00
   6.550   22.25  -21.96   -0.47   0.000   0.200   0.000    0.00
   6.600   22.20  -20.64    0.44   0.000   0.200   0.000    0.00
   6.650   21.27  -15.45    0.25   0.000   0.200   0.000    0.00
   6.700   20.37  -11.37   -0.92   0.000   0.200   0.000    0.00
   6.750   21.37  -11.43   -2.08   0.000   0.200   0.000    0.00
   6.800   22.37   -9.01   -0.57   0.000   0.200   0.000    0.00
   6.850   23.66   -7.39   -1.22   0.000   0.200   0.000    0.00
   6.900   22.28   -8.14   -1.86   0.000   0.200   0.000    0.00
   6.950   22.10   -9.14   -1.93   0.000   0.200   0.000    0.00
   7.000   21.56  -11.15   -0.63   0.000   0.200   0.000    0.00
   7.050   21.16  -11.47   -0.98   0.000   0.200   0.000    0.00
   7.100   21.97  -10.22   -1.56   0.000   0.200   0.000    0.00
   7.150   21.65  -11.80   -0.78   0.000   0.200   0.000    0.00
   7.200   21.29   -9.06   -0.29   0.000   0.200   0.000    0.00
   7.250   21.45   -9.07   -0.71   0.000   0.200   0.000    0.00
   7.300   19.87   -6.33   -1.11   0.000   0.200   0.000    0.00
   7.350   19.23   -4.98   -1.54   0.000   0.200   0.000    0.00
   7.400   19.77   -4.93   -1.12   0.000   0.200   0.000    0.00
   7.450   20.98   -2.18   -0.88   0.000   0.200   0.000    0.00
   7.500   20.90   -6.64   -1.03   0.000   0.200   0.000    0.00
   7.550   20.91  -10.25   -1.70   0.000   0.200   0.000    0.00
   7.600   20.30   -8.85   -1.85   0.000   0.200   0.000    0.00
   7.650   19.88   -7.41   -0.45   0.000   0.200   0.000    0.00
   7.700   21.30  -11.32   -0.15   0.000   0.200   0.000    0.00
   7.750   20.66   -7.30    0.12   0.000   0.200   0.000    0.00
   7.800   20.38   -5.19    0.14   0.000   0.200   0.000    0.00
   7.850   20.70   -5.74    0.23   0.000   0.200   0.000    0.00
   7.900   20.64   -2.54   -0.05   0.000   0.200   0.000    0.00
   7.950   21.08   -0.46    1.41   0.000   0.200   0.000    0.00
   8.000   20.96    1.86    1.81   0.000   0.200   0.000    0.00
   8.050   21.17    2.93    0.76   0.000   0.200   0.000    0.00
   8.100   20.43   -0.63    0.40   0.000   0.200   0.000    0.00
   8.150   20.13    0.32    0.34   0.000   0.200   0.000    0.00
   8.200   20.66   -2.87    1.15   0.000   0.200   0.000    0.00
   8.250   21.23   -2.24   -1.06   0.000   0.200   0.000    0.00
   8.300   21.75    1.39   -1.40   0.000   0.200   0.000    0.00
   8.350   20.60    2.36   -0.91   0.000   0.200   0.000    0.00
   8.400   19.93    0.70   -0.84   0.000   0.200   0.000    0.00
   8.450   19.68   -1.44   -0.21   0.000   0.200   0.000    0.00
   8.500   19.83   -0.30    0.04   0.000   0.200   0.000    0.00
   8.550   19.68   -5.70    0.08   0.000   0.200   0.000    0.00
   8.600   21.22   -1.14    1.24   0.000   0.200   0.000    0.00
   8.650   22.88   -0.80    2.39   0.000   0.200   0.000    0.00
   8.700   23.63   -6.32    1.24   0.000   0.200   0.000    0.00
   8.750   24.62   -6.33    0.65   0.000   0.200   0.000    0.00
   8.800   24.68   -5.71    0.80   0.000   0.200   0.000    0.00
   8.850   24.49   -5.26    1.81   0.000   0.200   0.000    0.00
   8.900   23.96   -6.87    3.30   0.000   0.200   0.000    0.00
   8.950   23.20   -4.38    2.34   0.000   0.200   0.000    0.00
   9.000   23.44   -5.49    2.38   0.000   0.200   0.000    0.00
   9.050   23.05   -5.75    2.89   0.000   0.200   0.000    0.00
   9.100   22.91   -6.18    2.30   0.000   0.200   0.000    0.00
   9.150   23.99   -4.92    2.79   0.000   0.200   0.000    0.00
   9.200   23.50   -3.96    2.61   0.000   0.200   0.000    0.00
   9.250   23.01   -6.23    2.41   0.000   0.200   0.000    0.00
   9.300   23.61   -4.33    1.98   0.000   0.200   0.000    0.00
   9.350   23.15   -5.17    1.95   0.000   0.200   0.000    0.00
   9.400   22.99   -1.81    1.35   0.000   0.200   0.000    0.00
   9.450   23.18   -0.32    0.00   0.000   0.200   0.000    0.00
   9.500   23.11    1.78   -0.18   0.000   0.200   0.000    0.00
   9.550   23.33    2.77   -0.40   0.000   0.200   0.000    0.00
   9.600   22.56    1.89   -0.74   0.000   0.200   0.000    0.00
   9.650   22.50    0.77   -1.09   0.000   0.200   0.000    0.00
   9.700   23.34    1.78   -0.87   0.000   0.200   0.000    0.00
   9.750   23.11   -0.67    0.00   0.000   0.200   0.000    0.00
   9.800   23.02    1.63    0.59   0.000   0.200   0.000    0.00
   9.850   24.26    1.38   -0.35   0.000   0.200   0.000    0.00
   9.900   22.97    0.26   -0.89   0.000   0.200   0.000    0.00
   9.950   22.49    0.67   -0.54   0.000   0.200   0.000    0.00
  10.000   21.88    3.10   -1.89   0.000   0.200   0.000    0.00
  10.050   22.38    2.00   -1.94   0.000   0.200   0.000    0.00
  10.100   23.09   -0.60   -1.87   0.000   0.200   0.000    0.00
  10.150   23.63   -1.28   -2.72   0.000   0.200   0.000    0.00
  10.200   22.70   -4.21   -1.69   0.000   0.200   0.000    0.00
  10.250   22.20   -5.05   -1.27   0.000   0.200   0.000    0.00
  10.300   21.90   -5.55   -1.54   0.000   0.200   0.000    0.00
  10.350   21.91   -5.73   -1.06   0.000   0.200   0.000    0.00
  10.400   21.47   -1.96   -1.39   0.000   0.200   0.000    0.00
  10.450   21.28    0.34   -1.05   0.000   0.200   0.000    0.00
  10.500   21.63    0.48   -1.65   0.000   0.200   0.000    0.00
  10.550   21.25   -1.38   -0.82   0.000   0.200   0.000    0.00
  10.600   20.33    1.00   -1.59   0.000   0.200   0.000    0.00
  10.650   19.05    1.54   -0.95   0.000   0.200   0.000    0.00
  10.700   18.80   -1.78   -1.07   0.000   0.200   0.000    0.00
  10.750   18.95   -2.02   -1.18   0.000   0.200   0.000    0.00
  10.800   18.85   -6.38   -1.10   0.000   0.200   0.000    0.00
  10.850   18.61   -2.60   -0.95   0.000   0.200   0.000    0.00
  10.900   18.32    0.33   -1.08   0.000   0.200   0.000    0.00
  10.950   18.10   -2.35   -1.82   0.000   0.200   0.000    0.00
  11.000   18.45   -7.50   -1.19   0.000   0.200   0.000    0.00
  11.050   18.39   -4.92   -1.41   0.000   0.200   0.000    0.00
  11.100   16.97   -7.66    0.02   0.000   0.200   0.000    0.00
  11.150   17.16  -11.54    0.20   0.000   0.200   0.000    0.00
  11.200   17.02   -9.60   -2.11   0.000   0.200   0.000    0.00
  11.250   16.95   -8.14   -0.80   0.000   0.200   0.000    0.00
  11.300   17.30   -5.85    0.58   0.000   0.200   0.000    0.00
  11.350   18.12   -4.96   -0.30   0.000   0.200   0.000    0.00
  11.400   18.25   -1.27    0.38   0.000   0.200   0.000    0.00
  11.450   16.48   -4.08    0.16   0.000   0.200   0.000    0.00
  11.500   15.87   -3.75    0.61   0.000   0.200   0.000    0.00
  11.550   16.90   -4.33    0.76   0.000   0.200   0.000    0.00
  11.600   17.54   -7.43    1.07   0.000   0.200   0.000    0.00
  11.650   17.23   -5.83    0.88   0.000   0.200   0.000    0.00
  11.700   18.43   -3.71    1.09   0.000   0.200   0.000    0.00
  11.750   18.43   -0.38    0.52   0.000   0.200   0.000    0.00
  11.800   17.80   -1.56   -0.66   0.000   0.200   0.000    0.00
  11.850   17.10   -0.08   -1.26   0.000   0.200   0.000    0.00
  11.900   16.84    1.03    0.14   0.000   0.200   0.000    0.00
  11.950   15.40   -0.86    0.66   0.000   0.200   0.000    0.00
  12.000   16.55    1.54   -0.95   0.000   0.200   0.000    0.00
  12.050   17.06   -0.04   -0.96   0.000   0.200   0.000    0.00
  12.100   17.34   -0.06   -1.11   0.000   0.200   0.000    0.00
  12.150   16.83   -1.11   -1.26   0.000   0.200   0.000    0.00
  12.200   17.33   -4.10   -0.79   0.000   0.200   0.000    0.00
  12.250   17.54    0.24   -0.83   0.000   0.200   0.000    0.00
  12.300   19.54   -2.09   -1.30   0.000   0.200   0.000    0.00
  12.350   19.65   -3.56   -1.74   0.000   0.200   0.000    0.00
  12.400   19.57   -0.63   -1.71   0.000   0.200   0.000    0.00
  12.450   19.51   -0.50   -1.43   0.000   0.200   0.000    0.00
  12.500   19.68    0.97   -0.44   0.000   0.200   0.000    0.00
  12.550   19.04    1.35    0.45   0.000   0.200   0.000    0.00
  12.600   17.87   -2.05    2.05   0.000   0.200   0.000    0.00
  12.650   17.87   -6.16    1.90   0.000   0.200   0.000    0.00
  12.700   17.29   -7.30    1.67   0.000   0.200   0.000    0.00
  12.750   17.68   -5.40    1.24   0.000   0.200   0.000    0.00
  12.800   17.06   -6.81    2.38   0.000   0.200   0.000    0.00
  12.850   17.07   -6.13    2.77   0.000   0.200   0.000    0.00
  12.900   16.01   -9.13    2.63   0.000   0.200   0.000    0.00
  12.950   16.42  -11.21    2.06   0.000   0.200   0.000    0.00
  13.000   17.82   -9.62    1.22   0.000   0.200   0.000    0.00
  13.050   18.98   -9.89    0.77   0.000   0.200   0.000    0.00
  13.100   18.87   -7.07   -0.96   0.000   0.200   0.000    0.00
  13.150   18.31   -5.57   -0.08   0.000   0.200   0.000    0.00
  13.200   16.97   -4.28    1.21   0.000   0.200   0.000    0.00
  13.250   17.80   -3.50    2.65   0.000   0.200   0.000    0.00
  13.300   19.34   -4.26    1.56   0.000   0.200   0.000    0.00
  13.350   19.11   -2.30    1.27   0.000   0.200   0.000    0.00
  13.400   19.80    1.59    1.98   0.000   0.200   0.000    0.00
  13.450   19.95    1.11    1.92   0.000   0.200   0.000    0.00
  13.500   19.18   -1.22    2.31   0.000   0.200   0.000    0.00
  13.550   17.57   -1.50    0.58   0.000   0.200   0.000    0.00
  13.600   18.37   -4.93   -0.15   0.000   0.200   0.000    0.00
  13.650   18.18   -7.03    0.54   0.000   0.200   0.000    0.00
  13.700   17.51  -11.20    0.58   0.000   0.200   0.000    0.00
  13.750   17.59  -14.02    0.91   0.000   0.200   0.000    0.00
  13.800   17.16   -9.11   -0.67   0.000   0.200   0.000    0.00
  13.850   16.53   -9.16   -0.32   0.000   0.200   0.000    0.00
  13.900   16.16  -10.31   -0.08   0.000   0.200   0.000    0.00
  13.950   16.65  -11.89   -0.60   0.000   0.200   0.000    0.00
  14.000   17.20  -11.79   -0.25   0.000   0.200   0.000    0.00
  14.050   17.21  -11.85   -0.97   0.000   0.200   0.000    0.00
  14.100   16.39   -6.87   -1.16   0.000   0.200   0.000    0.00
  14.150   16.62   -3.88   -1.24   0.000   0.200   0.000    0.00
  14.200   16.64   -3.33    0.38   0.000   0.200   0.000    0.00
  14.250   16.31   -0.06   -0.11   0.000   0.200   0.000    0.00
  14.300   17.24    1.77    0.67   0.000   0.200   0.000    0.00
  14.350   18.10    0.72    0.13   0.000   0.200   0.000    0.00
  14.400   18.30   -1.22   -0.37   0.000   0.200   0.000    0.00
  14.450   18.73    3.43    0.64   0.000   0.200   0.000    0.00
  14.500   18.19    6.97    0.92   0.000   0.200   0.000    0.00
  14.550   18.61    7.30    0.21   0.000   0.200   0.000    0.00
  14.600   18.68    5.06    0.57   0.000   0.200   0.000    0.00
  14.650   18.51    5.96    0.22   0.000   0.200   0.000    0.00
  14.700   18.76    1.09    0.74   0.000   0.200   0.000    0.00
  14.750   18.67    1.65    0.55   0.000   0.200   0.000    0.00
  14.800   18.74   -1.33    0.18   0.000   0.200   0.000    0.00
  14.850   19.51   -2.49    0.17   0.000   0.200   0.000    0.00
  14.900   19.08   -4.40    0.37   0.000   0.200   0.000    0.00
  14.950   19.18   -3.09    0.71   0.000   0.200   0.000    0.00
  15.000   17.80   -4.80    0.87   0.000   0.200   0.000    0.00
  15.050   18.09   -0.25   -0.26   0.000   0.200   0.000    0.00
  15.100   18.39   -2.72   -0.91   0.000   0.200   0.000    0.00
  15.150   18.68   -3.95   -1.99   0.000   0.200   0.000    0.00
  15.200   18.51   -2.21   -2.06   0.000   0.200   0.000    0.00
  15.250   18.10   -3.44   -1.69   0.000   0.200   0.000    0.00
  15.300   17.89   -0.67   -0.94   0.000   0.200   0.000    0.00
  15.350   16.61   -4.24   -1.26   0.000   0.200   0.000    0.00
  15.400   17.54   -6.30   -1.30   0.000   0.200   0.000    0.00
  15.450   18.16   -3.23   -0.73   0.000   0.200   0.000    0.00
  15.500   17.41   -1.67    0.39   0.000   0.200   0.000    0.00
  15.550   17.41   -6.10   -0.12   0.000   0.200   0.000    0.00
  15.600   17.44   -2.54   -0.54   0.000   0.200   0.000    0.00
  15.650   18.36   -4.14   -0.69   0.000   0.200   0.000    0.00
  15.700   18.48    0.24   -0.70   0.000   0.200   0.000    0.00
  15.750   18.76    2.36   -0.99   0.000   0.200   0.000    0.00
  15.800   18.33    3.04   -1.11   0.000   0.200   0.000    0.00
  15.850   17.51    5.86   -1.76   0.000   0.200   0.000    0.00
  15.900   17.67    5.24   -1.62   0.000   0.200   0.000    0.00
  15.950   18.58    8.69   -1.11   0.000   0.200   0.000    0.00
  16.000   18.93    9.26   -1.08   0.000   0.200   0.000    0.00
  16.050   18.55    6.93   -0.97   0.000   0.200   0.000    0.00
  16.100   18.06    8.08   -0.81   0.000   0.200   0.000    0.00
  16.150   18.63    4.94    0.58   0.000   0.200   0.000    0.00
  16.200   19.42    0.48    0.09   0.000   0.200   0.000    0.00
  16.250   20.17    1.73   -1.24   0.000   0.200   0.000    0.00
  16.300   19.78    0.08   -1.18   0.000   0.200   0.000    0.00
  16.350   20.43   -1.47   -1.77   0.000   0.200   0.000    0.00
  16.400   20.43   -5.15   -2.25   0.000   0.200   0.000    0.00
  16.450   21.11   -6.55   -1.41   0.000   0.200   0.000    0.00
  16.500   21.17   -5.76   -1.15   0.000   0.200   0.000    0.00
  16.550   21.77   -2.71   -1.34   0.000   0.200   0.000    0.00
  16.600   22.41   -4.72   -1.53   0.000   0.200   0.000    0.00
  16.650   21.85   -4.29   -1.84   0.000   0.200   0.000    0.00
  16.700   21.35   -3.21   -2.89   0.000   0.200   0.000    0.00
  16.750   20.83   -3.00   -3.08   0.000   0.200   0.000    0.00
  16.800   19.74   -3.72   -2.11   0.000   0.200   0.000    0.00
  16.850   19.84   -2.97   -3.38   0.000   0.200   0.000    0.00
  16.900   20.24   -4.94   -3.66   0.000   0.200   0.000    0.00
  16.950   20.55   -3.50   -2.63   0.000   0.200   0.000    0.00
  17.000   21.56    0.36   -3.14   0.000   0.200   0.000    0.00
  17.050   20.92    0.27   -3.91   0.000   0.200   0.000    0.00
  17.100   20.59    0.90   -3.18   0.000   0.200   0.000    0.00
  17.150   21.14    3.42   -1.96   0.000   0.200   0.000    0.00
  17.200   21.44    1.50   -1.80   0.000   0.200   0.000    0.00
  17.250   20.96   -1.97   -1.57   0.000   0.200   0.000    0.00
  17.300   19.85   -1.33   -0.62   0.000   0.200   0.000    0.00
  17.350   19.08    0.31    0.19   0.000   0.200   0.000    0.00
  17.400   19.00    2.16    1.20   0.000   0.200   0.000    0.00
  17.450   19.73    1.52    1.56   0.000   0.200   0.000    0.00
  17.500   19.55    3.76    0.62   0.000   0.200   0.000    0.00
  17.550   20.11    3.38    0.18   0.000   0.200   0.000    0.00
  17.600   20.51    7.27    0.26   0.000   0.200   0.000    0.00
  17.650   20.00   12.07   -0.04   0.000   0.200   0.000    0.00
  17.700   20.01   13.22   -0.67   0.000   0.200   0.000    0.00
  17.750   20.05   13.13   -0.80   0.000   0.200   0.000    0.00
  17.800   20.19   10.61   -0.89   0.000   0.200   0.000    0.00
  17.850   19.70    8.43    0.16   0.000   0.200   0.000    0.00
  17.900   20.00    6.35    1.37   0.000   0.200   0.000    0.00
  17.950   18.93    6.94    0.74   0.000   0.200   0.000    0.00
  18.000   19.30   11.64    0.86   0.000   0.200   0.000    0.00
  18.050   19.37   12.81    1.04   0.000   0.200   0.000    0.00
  18.100   18.54   13.00    1.06   0.000   0.200   0.000    0.00
  18.150   20.11   14.65    0.60   0.000   0.200   0.000    0.00
  18.200   19.93   12.79    0.12   0.000   0.200   0.000    0.00
  18.250   20.65   10.18   -0.84   0.000   0.200   0.000    0.00
  18.300   21.85   12.05    0.01   0.000   0.200   0.000    0.00
  18.350   20.71   13.89   -0.51   0.000   0.200   0.000    0.00
  18.400   20.51   10.52   -1.39   0.000   0.200   0.000    0.00
  18.450   19.91    6.47   -1.65   0.000   0.200   0.000    0.00
  18.500   19.79   10.28   -0.67   0.000   0.200   0.000    0.00
  18.550   20.12    8.61   -0.79   0.000   0.200   0.000    0.00
  18.600   20.43    9.44   -1.50   0.000   0.200   0.000    0.00
  18.650   20.58    9.29   -0.45   0.000   0.200   0.000    0.00
  18.700   20.05    6.69    0.80   0.000   0.200   0.000    0.00
  18.750   19.65    5.78    0.31   0.000   0.200   0.000    0.00
  18.800   19.01    7.95    0.19   0.000   0.200   0.000    0.00
  18.850   19.19    4.26    1.76   0.000   0.200   0.000    0.00
  18.900   20.30    6.13    1.65   0.000   0.200   0.000    0.00
  18.950   20.52   10.13    1.02   0.000   0.200   0.000    0.00
  19.000   20.56    8.47    1.12   0.000   0.200   0.000    0.00
  19.050   20.45    9.18    1.18   0.000   0.200   0.000    0.00
  19.100   20.06   10.33    2.45   0.000   0.200   0.000    0.00
  19.150   20.71    6.10    1.57   0.000   0.200   0.000    0.00
  19.200   21.21    7.51    0.92   0.000   0.200   0.000    0.00
  19.250   21.54    5.65    0.50   0.000   0.200   0.000    0.00
  19.300   21.32    5.90    0.42   0.000   0.200   0.000    0.00
  19.350   20.41    4.25    0.03   0.000   0.200   0.000    0.00
  19.400   20.43   -1.91   -0.56   0.000   0.200   0.000    0.00
  19.450   19.65    1.15   -1.15   0.000   0.200   0.000    0.00
  19.500   18.68    1.64   -1.85   0.000   0.200   0.000    0.00
  19.550   19.39   -1.34   -2.01   0.000   0.200   0.000    0.00
  19.600   19.51   -1.18   -1.19   0.000   0.200   0.000    0.00
  19.650   20.51   -2.71   -1.42   0.000   0.200   0.000    0.00
  19.700   19.76   -1.63   -1.07   0.000   0.200   0.000    0.00
  19.750   18.78    1.20    0.60   0.000   0.200   0.000    0.00
  19.800   18.21   -1.04    0.99   0.000   0.200   0.000    0.00
  19.850   18.38   -0.29    0.89   0.000   0.200   0.000    0.00
  19.900   18.04    0.54    0.81   0.000   0.200   0.000    0.00
  19.950   18.43    1.95    1.42   0.000   0.200   0.000    0.00
  20.000   18.09    1.89   -0.02   0.000   0.200   0.000    0.00
  20.050   18.86   -1.64    0.68   0.000   0.200   0.000    0.00
  20.100   18.66   -2.54    2.07   0.000   0.200   0.000    0.00
  20.150   18.44   -0.78    2.09   0.000   0.200   0.000    0.00
  20.200   18.00    4.33    3.94   0.000   0.200   0.000    0.00
  20.250   18.15    2.97    4.41   0.000   0.200   0.000    0.00
  20.300   18.21   -0.64    2.93   0.000   0.200   0.000    0.00
  20.350   18.35    3.83    2.23   0.000   0.200   0.000    0.00
  20.400   18.06    3.55    1.80   0.000   0.200   0.000    0.00
  20.450   16.67    5.41    2.74   0.000   0.200   0.000    0.00
  20.500   16.21    5.11    2.61   0.000   0.200   0.000    0.00
  20.550   15.98    0.18    2.79   0.000   0.200   0.000    0.00
  20.600   15.00   -3.25    2.05   0.000   0.200   0.000    0.00
  20.650   14.80   -2.66    2.41   0.000   0.200   0.000    0.00
  20.700   15.69   -3.63    2.41   0.000   0.200   0.000    0.00
  20.750   15.76   -5.80    2.56   0.000   0.200   0.000    0.00
  20.800   16.42   -5.38    2.17   0.000   0.200   0.000    0.00
  20.850   16.94   -5.90    1.15   0.000   0.200   0.000    0.00
  20.900   16.76  -10.26    0.78   0.000   0.200   0.000    0.00
  20.950   17.50   -9.18    0.99   0.000   0.200   0.000    0.00
  21.000   18.20   -5.42    2.15   0.000   0.200   0.000    0.00
  21.050   19.77   -4.96    1.95   0.000   0.200   0.000    0.00
  21.100   18.50   -4.60    0.54   0.000   0.200   0.000    0.00
  21.150   17.90   -1.21    0.42   0.000   0.200   0.000    0.00
  21.200   17.95   -0.19    0.86   0.000   0.200   0.000    0.00
  21.250   18.33   -1.26    0.70   0.000   0.200   0.000    0.00
  21.300   19.18   -3.43    0.46   0.000   0.200   0.000    0.00
  21.350   19.26   -3.97   -0.32   0.000   0.200   0.000    0.00
  21.400   19.06    1.13   -0.84   0.000   0.200   0.000    0.00
  21.450   19.45   -3.13   -2.39   0.000   0.200   0.000    0.00
  21.500   19.30   -3.84   -0.87   0.000   0.200   0.000    0.00
  21.550   19.23   -1.35   -1.45   0.000   0.200   0.000    0.00
  21.600   19.23    0.23   -0.96   0.000   0.200   0.000    0.00
  21.650   18.82   -1.26   -1.40   0.000   0.200   0.000    0.00
  21.700   18.00   -4.00   -0.85   0.000   0.200   0.000    0.00
  21.750   17.52   -6.82    0.06   0.000   0.200   0.000    0.00
  21.800   17.39   -8.79    0.59   0.000   0.200   0.000    0.00
  21.850   16.97   -6.68    0.40   0.000   0.200   0.000    0.00
  21.900   16.34   -5.45    0.41   0.000   0.200   0.000    0.00
  21.950   17.41   -3.84   -0.52   0.000   0.200   0.000    0.00
  22.000   17.35   -0.79    1.17   0.000   0.200   0.000    0.00
  22.050   17.75    2.13    0.52   0.000   0.200   0.000    0.00
  22.100   18.66    1.97    1.10   0.000   0.200   0.000    0.00
  22.150   19.02    1.71    0.31   0.000   0.200   0.000    0.00
  22.200   19.54   -0.52    0.24   0.000   0.200   0.000    0.00
  22.250   18.98    0.57    0.39   0.000   0.200   0.000    0.00
  22.300   18.50    1.48   -0.45   0.000   0.200   0.000    0.00
  22.350   18.32    1.01   -0.40   0.000   0.200   0.000    0.00